117

 C       -13.7623219408       -3.7795499031       -1.2907104976
 C       -12.6234482253       -3.1190190751       -0.6128480981
 O       -12.8552856545       -2.4373711931        0.3467977573
 C       -11.1439027995       -3.3234987752       -1.1590265620
 C       -10.2410047223       -2.2846959008       -0.3951900667
 O       -10.0254779520       -1.2159236320       -0.9371307906
 C        -9.5258872438       -2.6309902363        0.8872010724
 C        -9.7930902447       -1.6870436582        2.0450931297
 C        -9.0318081343       -0.3847298131        2.0307482980
 O        -8.0163110885       -0.2053240704        1.3760045548
 C        -9.5956736201        0.8536920225        2.8471113827
 C       -10.2919820632        1.8847724726        1.8949991913
 O        -9.9228864165        3.0182229845        1.8824876510
 C       -11.3923194826        1.3961801414        0.9250168022
 C       -12.4916694352        2.3853950312        0.5581047141
 C       -13.4931229019        2.7502224840        1.7567405002
 O       -13.9443026806        1.9170307024        2.4775342352
 C       -14.0780573821        4.2468288794        1.9842571005
 C       -12.7004739657        5.1257168359        1.8864804459
 O       -12.2353049280        5.0057707607        0.7790889511
 C       -12.1544969111        5.8023909805        3.1420330006
 C       -10.7271055179        6.1907899689        3.0884956965
 C       -10.2868829029        7.2006836974        1.9805113499
 O       -10.9405605153        7.3702049189        1.0026245205
 C        -8.9159405246        8.0713167554        2.1898812825
 C        -7.8164002886        7.3909813727        1.2886155960
 O        -7.8967170598        6.2153882073        0.9802821422
 C        -6.5307725412        8.0726190600        0.9829152577
 C        -6.3765458413        8.2538720687       -0.5911397372
 C        -7.1554735319        9.3718568825       -1.2313389408
 O        -7.2747715678       10.4643292580       -0.7469965242
 C        -7.8550736450        9.0739233096       -2.6574781929
 C        -8.6921217980        7.7034790772       -2.5622832611
 O        -8.9816015024        7.1871260025       -1.5144903261
 C        -9.2024331407        7.2835325090       -3.9663706630
 C        -9.6103142860        5.8084346403       -4.0412125511
 C        -8.4863450659        4.8845957998       -4.4495970718
 O        -7.7057325648        5.1291942352       -5.3420438016
 C        -8.4965571043        3.3464466168       -3.7935780630
 C        -8.2866590235        3.4935625295       -2.2372514811
 O        -9.3202941278        3.7159402842       -1.5223434604
 C        -6.8922299156        3.4367989450       -1.6135060330
 C        -9.8467305492        2.8050538307       -4.1506498831
 C        -7.4532549880        2.5049820162       -4.5093710133
 C        -8.8459397004       10.1918335677       -3.0248429634
 C        -6.5908101108        9.0875257215       -3.6061390414
 C        -9.1016442159        9.4814430962        1.7403403792
 C        -8.2761670565        8.0753084933        3.6288949210
 C       -14.8607038564        4.5509356687        0.6851947192
 C       -14.9460939160        4.3698299592        3.3101115273
 C       -10.4831002783        0.3694745146        3.9753774028
 C        -8.3571615238        1.5752847819        3.4844117960
 C       -10.7024658413       -4.7571991915       -0.8145338134
 C       -11.0911966180       -2.9490094834       -2.6895857704
 H       -13.5739108039       -4.8253273943       -1.3493993989
 H       -13.8006181726       -3.3663285339       -2.3602031933
 H       -14.6982351363       -3.5404216338       -0.8162828295
 H        -8.4848443233       -2.7205740174        0.6379342642
 H        -9.9082297062       -3.6473304632        1.0758644633
 H        -9.4449907817       -2.3287952154        2.9109620975
 H       -10.8354226316       -1.4825524652        2.1359047435
 H       -11.6703918420        0.4236736605        1.3114603635
 H       -10.8942386501        1.1756623730       -0.0393771324
 H       -13.1053852406        1.7552419803       -0.1064694316
 H       -11.9598717128        3.1681295499       -0.0048366192
 H       -12.2666471526        4.9995725554        3.8937004216
 H       -12.6390067380        6.7292035101        3.4474389650
 H       -10.0975620177        5.2889485824        2.9930916126
 H       -10.4280466711        6.5687100439        4.1150200242
 H        -5.6290790002        7.4788879704        1.3686262126
 H        -6.3533097835        9.0463140285        1.4717165976
 H        -6.6703572231        7.2298761083       -1.0609960841
 H        -5.3298726169        8.3794562279       -0.8922302857
 H        -8.3969240123        7.4181247674       -4.6744269701
 H       -10.0705238916        7.8979161819       -4.2540596254
 H       -10.4658752385        5.7242973651       -4.6199892349
 H       -10.0116745621        5.5180213651       -3.0737360770
 H        -6.3657996229        4.4073736169       -1.7439489470
 H        -6.2690529190        2.7385814409       -2.2045262543
 H        -6.8436947268        3.1412171730       -0.5759491845
 H       -10.6271183466        3.3202483347       -3.6215363948
 H        -9.9212236480        1.8029224823       -3.8298402632
 H       -10.0164552695        2.8828395478       -5.2567030712
 H        -7.4498556493        2.6452750427       -5.6590028044
 H        -7.6415653275        1.4287372235       -4.4962464636
 H        -6.4791095590        2.6594050699       -4.0901931093
 H        -9.0417625447       10.0196750345       -4.0599915486
 H        -8.2327003013       11.1024410608       -2.9552182895
 H        -9.7543804329       10.2362451819       -2.3587285091
 H        -5.7995348544        8.3566274595       -3.2709006239
 H        -6.0346250980       10.0463920266       -3.6774278665
 H        -6.7197106469        8.7889263388       -4.6164980641
 H       -10.0065692867        9.8897524017        2.0510940536
 H        -9.1274091737        9.5419747005        0.6456667703
 H        -8.2421065335       10.1314283015        2.0237526065
 H        -8.0774375404        7.0849438710        4.0837836603
 H        -8.9776450226        8.5817799278        4.3123743763
 H        -7.3677532114        8.5588977379        3.4830502979
 H       -15.5375363964        5.4093236418        0.6740762467
 H       -15.4127361847        3.5853113371        0.3409086302
 H       -14.0528836969        4.7236444656       -0.0391688208
 H       -15.6511819596        5.2129202475        3.5261871420
 H       -14.3294836573        4.2466549218        4.1202913941
 H       -15.6825273140        3.5296667160        3.2806159032
 H        -9.7847340828       -0.0398800933        4.7699956135
 H       -11.1757299339       -0.2871925575        3.5666212189
 H       -11.0228989879        1.1856509158        4.3682477155
 H        -7.6871896903        1.7724105971        2.6451407421
 H        -7.9513557803        0.8142012935        4.1084897268
 H        -8.6598047319        2.4972605426        3.9328845334
 H       -11.4053713557       -5.5264092000       -1.2067159899
 H       -10.6289963327       -4.9650767313        0.2398946899
 H        -9.7060746541       -4.9580543151       -1.2451201380
 H       -11.6107075108       -3.6417322531       -3.3334349853
 H       -10.1005800381       -2.9997367470       -3.0477893703
 H       -11.4657269330       -1.9503754877       -2.8777808122
 Na       -9.9293507458        5.2162518466        0.2445919399
