117

 C       -13.8980490346       -3.8402363192       -1.3704690405
 C       -12.7178818599       -3.1325714862       -0.5243316988
 O       -12.9488874192       -2.4609994101        0.4464758961
 C       -11.2064676299       -3.2857238118       -1.0600839458
 C       -10.2315185066       -2.2554608204       -0.3813062401
 O       -10.0278225359       -1.1427529813       -0.8264952130
 C        -9.4346196538       -2.7357236410        1.0265567247
 C        -9.7498767657       -1.6652513566        2.1422727757
 C        -8.9671288645       -0.3829936838        1.9966682628
 O        -7.9090623187       -0.2449192115        1.4158110229
 C        -9.5844884332        0.9066395420        2.8384791142
 C       -10.3416025965        1.9276239681        1.7998060727
 O       -10.0640120442        3.1246827128        1.9076232832
 C       -11.4212980375        1.3393710125        0.8146622945
 C       -12.6405500678        2.2871800418        0.4461197152
 C       -13.4512595150        2.6325886331        1.6553336208
 O       -13.9058156144        1.8463787286        2.4716903577
 C       -13.9347165799        4.1737122533        1.8161249414
 C       -12.6481692560        5.1177871858        1.9191397644
 O       -12.1294560642        5.2865586097        0.7927206364
 C       -12.1419458925        5.8621584363        3.0809676623
 C       -10.6274258525        6.1920480509        3.0045857143
 C       -10.2477027414        7.3311723315        2.0155858433
 O       -10.9388702198        7.6617069983        1.0961957266
 C        -8.8689796121        8.0993668568        2.2267261856
 C        -7.7246556120        7.2819861944        1.3362393979
 O        -7.9100063266        6.1388394855        0.9882431616
 C        -6.5096757423        8.1024351834        0.9730227561
 C        -6.3840590192        8.1766098077       -0.6057700268
 C        -7.2133910290        9.3674093095       -1.2531148272
 O        -7.2171403436       10.4860163765       -0.7656616736
 C        -7.8061449673        9.0848930944       -2.6421617895
 C        -8.5679244031        7.6864625889       -2.5621772058
 O        -8.8274794540        7.2161465689       -1.4670144742
 C        -9.1296990932        7.2081712270       -3.8698499674
 C        -9.6960052187        5.6873716577       -4.0408046001
 C        -8.5305984585        4.7291697321       -4.4909534249
 O        -7.6964028629        5.0311792745       -5.2758406931
 C        -8.5078019416        3.3039040635       -3.8255237499
 C        -8.2760985034        3.5957356018       -2.3424436483
 O        -9.2605642214        3.7934996190       -1.6158643883
 C        -6.9294503863        3.4926848262       -1.6365775156
 C        -9.9408694218        2.6860922558       -4.0910325827
 C        -7.4280954380        2.4154257927       -4.4589124031
 C        -8.8268383342       10.1310860250       -3.0646648545
 C        -6.6267871204        9.1252176296       -3.6136735098
 C        -9.1035611458        9.4840020944        1.7122054587
 C        -8.4571831727        8.1367205601        3.7050449954
 C       -14.8705412889        4.5737066762        0.6957242568
 C       -14.7721794585        4.2565875868        3.1249448345
 C       -10.5851063702        0.4707459070        4.0275618716
 C        -8.4081422171        1.6359328019        3.5624804342
 C       -10.7726084222       -4.7389308936       -0.9171143133
 C       -11.2060264144       -3.0188125092       -2.5972439004
 H       -13.6330708790       -4.9004386391       -1.3907006571
 H       -14.0498599017       -3.4902083210       -2.3805453045
 H       -14.8586862165       -3.6836989752       -0.8501591413
 H        -8.3156210642       -2.7081218175        0.8167483363
 H        -9.7395054552       -3.7667035666        1.1695252782
 H        -9.3748060804       -2.1361828755        3.0744664153
 H       -10.8561533184       -1.3928581199        2.2712657714
 H       -11.6670996085        0.3570590580        1.2640382606
 H       -10.8663819916        1.0881601954       -0.1128348853
 H       -13.2560671688        1.6868015272       -0.1982144504
 H       -12.2180622337        3.1709984576       -0.0821512787
 H       -12.3507492660        5.2816898923        3.9869017762
 H       -12.5995782966        6.8265939508        3.1053933980
 H       -10.0388420230        5.2766526003        2.8217981723
 H       -10.2973857347        6.4651462546        3.9883871013
 H        -5.5599295869        7.7218936641        1.3868563746
 H        -6.5187703782        9.1021824599        1.3675001806
 H        -6.5904360305        7.1350216989       -0.9927619434
 H        -5.3750495524        8.3813231036       -0.8887503174
 H        -8.4467301140        7.4298202086       -4.7237714956
 H       -10.0507222545        7.8128351510       -3.9619534439
 H       -10.4447648300        5.7952881068       -4.8156819085
 H       -10.3457373968        5.3964743960       -3.2427395863
 H        -6.3035793383        4.4357620119       -1.8399412980
 H        -6.2742180610        2.6806211036       -2.0592293649
 H        -7.0490976245        3.3774116836       -0.5699821022
 H       -10.7804347235        3.3607768319       -3.7702667540
 H       -10.1217568661        1.8503671345       -3.4662214677
 H       -10.0359893942        2.4671665277       -5.1743939932
 H        -7.4312343735        2.5118701548       -5.5109130161
 H        -7.6724865129        1.3619916647       -4.3933887546
 H        -6.3710421211        2.5480234694       -4.0362815293
 H        -9.1017563732        9.8973949475       -4.0722563213
 H        -8.3526906554       11.0877589547       -3.0028140274
 H        -9.6954114403       10.0651660940       -2.3005064154
 H        -5.8120270278        8.5334726024       -3.4534307788
 H        -6.1649886071       10.1017747746       -3.7390966693
 H        -7.0043173119        8.8085747207       -4.6213855700
 H        -9.9805081555        9.9286614569        2.0934693945
 H        -9.2055033574        9.4781880367        0.6632465349
 H        -8.2756757505       10.1273381589        1.8921516253
 H        -8.2490791369        7.1636297689        4.1474377584
 H        -9.2517750418        8.5871758869        4.2450740810
 H        -7.5360064924        8.7090627824        3.7176650921
 H       -15.3943867480        5.4655022062        1.0697973269
 H       -15.6169989308        3.7845930382        0.4266293984
 H       -14.2956117370        4.9101707550       -0.1937130368
 H       -15.2920621183        5.1582042626        3.4276027547
 H       -14.0560429929        3.9879842715        3.9802830365
 H       -15.5607921171        3.5514711579        3.0988459297
 H       -10.1670029588       -0.3125041251        4.6103342797
 H       -11.5750358534        0.3482753876        3.5901104723
 H       -10.6467862388        1.3819045431        4.6429016694
 H        -7.7039809726        1.8686628377        2.8162299195
 H        -8.0506106558        0.8863455716        4.2623694896
 H        -8.7668498156        2.5892115908        3.9413582719
 H       -11.2798849544       -5.4259185298       -1.6463170965
 H       -10.8264598938       -5.1874741111        0.0833595974
 H        -9.7271448015       -4.7470852673       -1.2179514988
 H       -11.5723811714       -3.8653242511       -3.1236585050
 H       -10.1827986383       -2.9543682755       -2.9310377484
 H       -11.7288821608       -2.1931264541       -2.9129320004
 Na       -9.9017181938        5.1583968929        0.1479187185
