117

 C        -1.5446351887        3.1545961221        7.6192903181
 C        -2.6822754255        4.0479687680        7.4823959718
 O        -3.3928032795        4.3657496044        8.4630860922
 C        -2.8206059774        4.7409727222        6.1158658250
 C        -3.9031630661        4.0855564351        5.2935122296
 O        -3.6888986215        3.3189632459        4.3730492033
 C        -5.3626680651        4.3642135736        5.7910610554
 C        -6.5335935126        3.4790042594        5.3299559585
 C        -7.7569700911        4.2374972500        4.8080587447
 O        -7.7203816031        5.4323973497        5.0046188102
 C        -8.9058783073        3.4723147262        4.1811567668
 C       -10.1964045300        4.4473377524        3.9418755406
 O       -11.3415115026        4.2100981358        4.3624739072
 C        -9.9329937730        5.6856953544        3.0897027064
 C       -11.1460175473        6.2672447895        2.3806480550
 C       -11.4063296811        5.6647880145        1.0194454822
 O       -10.7786631456        4.7014765222        0.6675576276
 C       -12.5433424742        6.2987821277        0.1176396285
 C       -13.3599182086        5.0409675604       -0.3252278132
 O       -13.2657175456        4.8389068165       -1.5443930295
 C       -14.1136054576        4.0525829312        0.6059594416
 C       -14.7891896854        2.9282920429       -0.1791397479
 C       -13.6946036158        1.8793134087       -0.4931258253
 O       -12.5530000949        2.0662839605       -0.1924698536
 C       -14.1005769776        0.6222173388       -1.2219389286
 C       -13.1883897657        0.6024919152       -2.5791875558
 O       -12.0082489880        0.8901167708       -2.4416937519
 C       -13.8494498629        0.3236491237       -4.0077504659
 C       -12.7300921036        0.5098041285       -5.0624940083
 C       -12.6563624347        1.9413981564       -5.6030581051
 O       -13.2633989411        2.8893350783       -5.1313667964
 C       -11.7253444499        2.2817819305       -6.7659181114
 C       -10.4891627866        3.1266501521       -6.2140019119
 O        -9.4804870435        2.5790528728       -5.8179135592
 C       -10.7261557579        4.6855780978       -5.8984531152
 C        -9.5012193851        5.2878335919       -5.2398875316
 C        -9.5549891617        4.9505647893       -3.7936169645
 O       -10.6348779032        4.8102715283       -3.2407736361
 C        -8.1870243728        4.8277314373       -2.9638353519
 C        -8.0972393776        3.2587767029       -2.6537349248
 O        -8.9002490809        2.6354621250       -1.9920141754
 C        -6.9546448224        2.3989374692       -3.4032323081
 C        -7.0256152301        5.4856528247       -3.6679671832
 C        -8.3657545307        5.3977074924       -1.5276729658
 C       -11.0814701509        0.9826420736       -7.4510696909
 C       -12.4456936158        3.0186654266       -7.8980212346
 C       -13.4886224015       -0.5858619465       -0.4437756423
 C       -15.5783715260        0.3569210014       -1.4611426180
 C       -13.5636478931        7.3783297818        0.9190309652
 C       -12.0018106125        7.0515212120       -1.1039666310
 C        -8.4675215401        2.7576650147        2.8380549664
 C        -9.4667373682        2.3694356291        5.1803404189
 C        -3.1332882526        6.2049751330        6.5012127580
 C        -1.4996876861        4.5361533829        5.3181759260
 H        -1.5181771454        2.4553622959        6.7772030769
 H        -1.5984432332        2.4567312102        8.5092835986
 H        -0.5871577099        3.6864054882        7.4207531552
 H        -5.5164764681        5.4458717188        5.5401176296
 H        -5.3885955744        4.3886968516        6.8355543166
 H        -6.8417672640        2.7833757108        6.2124598104
 H        -6.1416049064        2.8454013893        4.4515343771
 H        -9.0694762803        5.4166156639        2.4507728098
 H        -9.4695933932        6.5461809782        3.5938181105
 H       -11.0380623095        7.3034093201        2.2865388964
 H       -11.9945670938        6.0873431061        3.0837811441
 H       -14.7871459750        4.6599462163        1.1686123594
 H       -13.4870895919        3.6372516713        1.4487893859
 H       -15.2281828891        3.2852191031       -1.1298837629
 H       -15.6510614192        2.5139498260        0.3631234840
 H       -14.5366150945        1.1177270174       -4.2392202367
 H       -14.2152912993       -0.6943336573       -3.9959546558
 H       -12.7971084172       -0.2579881697       -5.8528870481
 H       -11.7333657550        0.4093703553       -4.5939047049
 H       -11.5242600006        4.7280832661       -5.1342840714
 H       -11.0503307488        5.3582498818       -6.7360843066
 H        -9.4335909653        6.3906391405       -5.3598948135
 H        -8.5530140349        4.9845848265       -5.7802923167
 H        -7.0442778810        1.3147203988       -3.3361437402
 H        -5.9527311162        2.7905283096       -2.9610084352
 H        -6.9845796338        2.7120916502       -4.4373487572
 H        -7.1274427698        6.5202466591       -3.6235453115
 H        -6.9342046476        5.1423850636       -4.7605944323
 H        -6.1020657337        5.1408723581       -3.1970322869
 H        -9.2559313000        5.0557042935       -1.0894560328
 H        -8.4051515143        6.4402678458       -1.5096456610
 H        -7.4665865631        5.1436698421       -0.9991954013
 H       -11.8075753708        0.2193523030       -7.4820251465
 H       -10.2837029979        0.6365819753       -6.7447203537
 H       -10.7343976725        1.1594039992       -8.5196781901
 H       -13.1479595754        3.7526782118       -7.4973956191
 H       -12.9520925076        2.3744907255       -8.6055320484
 H       -11.6925251372        3.6090579910       -8.5029284447
 H       -13.9726858042       -0.9615405200        0.4786734433
 H       -12.4509673350       -0.2145409064       -0.2494692372
 H       -13.4286468185       -1.4455496034       -1.1474937045
 H       -16.1306033481        0.3019443296       -0.5758957355
 H       -15.5198598397       -0.5456485181       -2.0455637782
 H       -16.0180476207        1.2439187084       -1.9798134803
 H       -14.1044949669        7.9706902439        0.1424264047
 H       -12.8948863914        8.0578669822        1.4702202840
 H       -14.4008426496        6.9238504741        1.5078795642
 H       -11.4553820173        6.4080809407       -1.7938551416
 H       -11.2972780316        7.8338248533       -0.8070729560
 H       -12.7660949098        7.5606197515       -1.7507936158
 H        -7.6632343366        2.0264016383        2.9970912275
 H        -8.1702777162        3.5799151839        2.1221176400
 H        -9.2429545586        2.2039043207        2.3319362640
 H        -9.8702262975        2.9001210843        6.0388265878
 H        -8.5900250427        1.7376498296        5.4421601420
 H       -10.2082244539        1.7402957748        4.6301644189
 H        -3.8188357230        6.2400602554        7.3578449515
 H        -3.8097051641        6.5968466845        5.7010894119
 H        -2.3048608496        6.8727696788        6.7724328272
 H        -1.3256888067        3.5422543426        4.8659931558
 H        -0.5796506678        4.8952500977        5.8728917860
 H        -1.6268499627        5.1428450710        4.3866963741
 Na      -11.2752548510        3.2345499005       -1.6243759359
