117

 C       -13.9143716008       -3.8327193686       -1.0128326315
 C       -12.7383120877       -3.1945671464       -0.2558424267
 O       -12.9669463088       -2.5934366208        0.7892955468
 C       -11.3102484508       -3.2038309006       -0.9417516157
 C       -10.4331850067       -2.1246379270       -0.1949456933
 O       -10.3560128832       -0.9881714934       -0.5768692441
 C        -9.7089590537       -2.5222984257        1.2026013599
 C       -10.1030460327       -1.5199294904        2.3190360982
 C        -9.2189994540       -0.2526359861        2.1094546134
 O        -8.1624608731       -0.2225272167        1.5405020624
 C        -9.8342472349        1.1079688927        2.7432579200
 C       -10.4261234022        1.8921972657        1.5373292288
 O       -10.0114904688        3.0446738140        1.3648809988
 C       -11.4122557739        1.3275795921        0.4403541531
 C       -12.5501758592        2.3486731322        0.1545393830
 C       -13.2801686015        2.6182459299        1.4508814977
 O       -13.3533255412        1.8173208623        2.3680353519
 C       -13.7374328471        4.1475711091        1.5948377398
 C       -12.3911647847        5.0980647920        1.4599345013
 O       -11.7333641891        5.1580027173        0.3913954050
 C       -11.8324452035        5.7223446264        2.7796498490
 C       -10.4313054011        6.3681376107        2.8748932003
 C       -10.2414755151        7.6617766602        2.1254199248
 O       -11.1730342567        8.2836033561        1.5846406350
 C        -8.9164055899        8.3113663399        2.1337299954
 C        -7.8451338165        7.5104009429        1.3664809847
 O        -7.9276380342        6.2974831530        1.1802921898
 C        -6.4804320874        8.1336180357        1.0343157553
 C        -6.2322355863        8.0303610535       -0.4565652028
 C        -7.1402192801        9.0577565698       -1.1354581544
 O        -7.2499865903       10.1511117289       -0.6309399609
 C        -7.7755760276        8.7715175527       -2.5485420526
 C        -8.5814092675        7.4178497031       -2.6541434999
 O        -8.6878354688        6.6602456476       -1.6918010776
 C        -9.1071018394        7.0171052136       -4.0277227047
 C        -9.7462398734        5.5857673188       -4.2239214951
 C        -8.5983504405        4.5950698191       -4.4692814472
 O        -7.6395020877        4.9913477875       -5.0952349867
 C        -8.6184725688        3.0945905873       -3.7165047233
 C        -8.4516249169        3.4477438466       -2.2116393004
 O        -9.4438144460        3.5844482391       -1.5001394336
 C        -7.0614951645        3.6526184233       -1.6792366682
 C       -10.0162925447        2.3986863721       -4.0400189224
 C        -7.4185038445        2.3184326885       -4.3073766936
 C        -8.8740345128        9.9847560401       -2.8345429433
 C        -6.6235949096        8.8437882317       -3.6004795942
 C        -9.0469613464        9.8557712611        1.7129920842
 C        -8.2606278454        8.2994171950        3.6023425904
 C       -14.7780295290        4.4016014853        0.4426292021
 C       -14.4445286552        4.2889520354        2.9699769703
 C       -10.8410954034        0.8418216667        3.8962695105
 C        -8.6160274610        1.9982428513        3.3686089368
 C       -10.7517065422       -4.6486327813       -0.7815909438
 C       -11.2574974688       -2.9452238888       -2.4792535379
 H       -13.5634023516       -4.6898349834       -1.6164893328
 H       -14.4480814992       -3.1733519243       -1.6517659563
 H       -14.7181325617       -4.1072324021       -0.2893088247
 H        -8.6595089133       -2.4451819366        0.8659945960
 H        -9.8912895319       -3.5456228600        1.3759203252
 H        -9.8518302194       -1.9504376505        3.2728669806
 H       -11.2070505454       -1.2702934698        2.3507747611
 H       -11.8859163030        0.4186855708        0.8486486502
 H       -10.7174489159        1.0725424484       -0.3584155036
 H       -13.2382128042        2.0039216654       -0.6163834455
 H       -12.1375806254        3.2873827390       -0.2644148110
 H       -11.9392986240        4.9722463607        3.5912106506
 H       -12.5364955853        6.5250021499        3.0329155843
 H        -9.5963496984        5.6638172485        2.5583116296
 H       -10.2523331988        6.4289559882        3.9573593977
 H        -5.7222154698        7.4137281326        1.4781062680
 H        -6.2139085420        9.1750407098        1.3764227859
 H        -6.5191839261        6.9922149523       -0.7288883931
 H        -5.1616810901        8.2438422766       -0.7304841291
 H        -8.2702132010        7.0130428522       -4.7503155211
 H        -9.8029617576        7.8019331824       -4.3144767088
 H       -10.4069760074        5.5240864806       -5.0671304193
 H       -10.3920441612        5.3071336577       -3.4481520914
 H        -6.2901140647        3.5482041979       -2.4314271251
 H        -6.8188672151        2.9073417761       -0.9394768252
 H        -7.0780651149        4.6208233123       -1.1688899757
 H       -10.8296620187        2.8307666915       -3.4469855703
 H       -10.0708605807        1.3361253778       -3.8077264019
 H       -10.2484994268        2.5194187886       -5.0602375526
 H        -7.7416242550        1.7538311208       -5.1399866045
 H        -6.9341132672        1.6090402352       -3.5824344760
 H        -6.6108127021        3.0086011711       -4.7593424065
 H        -9.4543792530        9.8235778149       -3.7718154788
 H        -8.3469863562       10.9372491176       -2.7720243797
 H        -9.4915200884        9.9126688528       -1.9580503188
 H        -6.0073848592        7.9963610745       -3.7444301387
 H        -5.8923178019        9.5994038119       -3.3212789195
 H        -7.1115737500        9.0599173617       -4.6040960817
 H        -9.7194454128       10.4143598269        2.4214433919
 H        -9.4398047125       10.0153446802        0.7080185092
 H        -8.1156187232       10.3897819384        1.7345225069
 H        -8.1296724218        7.2639094643        3.9078550987
 H        -8.8322427830        8.9224547231        4.2586333660
 H        -7.2478822741        8.7828121744        3.5226931487
 H       -15.0728884133        5.4729507475        0.6089507374
 H       -15.6854572289        3.8636960348        0.6355353002
 H       -14.3155412179        4.2851205552       -0.5599938541
 H       -14.8628783762        5.2290642419        3.2659948037
 H       -13.7342802255        3.9291280604        3.8355362589
 H       -15.1594361486        3.5229670791        3.1011729328
 H       -10.3659661810        0.2497605261        4.5834889257
 H       -11.7410922493        0.3764650882        3.4716269841
 H       -11.0365177475        1.8424882353        4.2923831390
 H        -7.7994053666        2.1057655989        2.7013772784
 H        -8.3957379691        1.3338980498        4.2088108026
 H        -8.9639395624        2.9917300564        3.6717888993
 H       -11.3149986487       -5.3286306316       -1.4117535580
 H       -10.7885832848       -4.9468339847        0.2617081593
 H        -9.7569779507       -4.7803801341       -1.1420442595
 H       -12.0014306790       -3.5587579496       -2.9861088450
 H       -10.2243874227       -3.1005991001       -2.8886504385
 H       -11.5676873170       -1.9416093367       -2.7055506033
 Na       -9.6577072651        5.2031444933        0.2097461642
