117

 C       -13.9556741905       -3.8214106071       -0.9069875844
 C       -12.7253562558       -3.1425568221       -0.2518247602
 O       -12.8560444895       -2.6360138254        0.8491637157
 C       -11.3177195258       -3.2015203386       -0.8920090902
 C       -10.4319214518       -2.1381969796       -0.1268264750
 O       -10.3444695204       -1.0253564713       -0.6074120370
 C        -9.8033652127       -2.4673749839        1.2423079555
 C       -10.2024026344       -1.4674771893        2.2901843520
 C        -9.3604333709       -0.1930083738        2.1623914711
 O        -8.2986577459       -0.2567825772        1.5797164298
 C        -9.8868244731        1.1506068925        2.7111184551
 C       -10.3261782670        2.0629549353        1.4154046982
 O        -9.8133286232        3.1577510566        1.2159923842
 C       -11.2730454025        1.3786708670        0.3856285842
 C       -12.5685413892        2.2212966006        0.1197467234
 C       -13.1936782752        2.6867313506        1.4086573776
 O       -13.2728466373        1.9585031688        2.3505864304
 C       -13.6750320216        4.1681666362        1.5654409343
 C       -12.3639947593        5.0493929159        1.5348918369
 O       -11.8329660002        5.2095220984        0.4654221285
 C       -11.8701383738        5.6243074504        2.8289343008
 C       -10.4646279018        6.3274159734        2.6969235072
 C       -10.2786894278        7.7567902124        2.1143597572
 O       -11.2068992429        8.3854122059        1.6613570244
 C        -8.7896871152        8.4010754986        2.1934221332
 C        -7.7415266244        7.5543093003        1.4267964836
 O        -8.0269171125        6.3990605402        1.1436446340
 C        -6.4203816589        8.1549962563        1.0053635503
 C        -6.2699005173        7.8301126859       -0.5089493079
 C        -7.1566694047        8.9697316688       -1.1899561872
 O        -7.3112082297       10.0072988661       -0.6014214123
 C        -7.8150754428        8.6970185581       -2.5649174912
 C        -8.5858109162        7.2813266346       -2.6574244900
 O        -8.6700802601        6.5659340626       -1.6716268666
 C        -9.1820769437        7.0233565251       -4.0350444092
 C        -9.7149577619        5.5738100205       -4.1969337128
 C        -8.5827371785        4.6029669862       -4.3633266701
 O        -7.5824298778        4.8136621227       -5.0719933410
 C        -8.6190707453        3.1876698199       -3.7398834916
 C        -8.5425051731        3.4197618876       -2.1935980326
 O        -9.4909767319        3.4231415267       -1.4862895547
 C        -7.0805475904        3.6888237545       -1.6128439078
 C        -9.9274131540        2.5979090517       -4.0730634071
 C        -7.4789615510        2.2978639401       -4.2650603480
 C        -8.8694642119        9.8085293218       -2.8839277088
 C        -6.6599861590        8.8164901169       -3.5108545905
 C        -8.9924232460        9.8330880801        1.7237061677
 C        -8.2090758688        8.4273789228        3.6591432052
 C       -14.7120252466        4.5239522871        0.4101551162
 C       -14.4536096592        4.3770122977        2.8125040545
 C       -10.8968630674        0.9228751182        3.8315059399
 C        -8.6948644269        1.9674136595        3.2945033691
 C       -10.6890574640       -4.6256281961       -0.7114065612
 C       -11.3540335654       -2.9746911932       -2.4183790541
 H       -13.5460238021       -4.5680810869       -1.6213349901
 H       -14.5985598185       -3.1735071533       -1.4581588999
 H       -14.6696349869       -4.2523881600       -0.2103974942
 H        -8.7377836426       -2.7570553398        1.0630604312
 H       -10.3458266556       -3.4051573869        1.4527670833
 H        -9.9479698320       -1.9969796874        3.2299208076
 H       -11.3496479510       -1.3558055037        2.3052867025
 H       -11.4931041138        0.3752247374        0.8171750152
 H       -10.5901364362        1.2643899997       -0.4761119471
 H       -13.3744086442        1.6259667463       -0.3303382661
 H       -12.3451165049        2.9528760147       -0.6243230473
 H       -11.8706747986        4.8560160549        3.5988023400
 H       -12.5678215954        6.3619666952        3.2214924560
 H        -9.6966628426        5.6950004031        2.2865914247
 H       -10.1884230790        6.3316756498        3.7398953626
 H        -5.5836748278        7.7866722706        1.5537425901
 H        -6.3927053549        9.2676107978        1.0680685247
 H        -6.5319976687        6.8634137434       -0.7149360100
 H        -5.2247774698        8.0928875763       -0.8101642078
 H        -8.4907885755        7.1977841648       -4.8874936707
 H       -10.0011366723        7.7663332324       -4.0659986091
 H       -10.2668760142        5.3952547794       -5.1344754833
 H       -10.4435846036        5.2940596028       -3.4708488100
 H        -6.2473321045        3.4406045842       -2.2500798992
 H        -6.9050678195        3.0410807221       -0.7382906179
 H        -7.0580661750        4.7720504670       -1.2011921743
 H       -10.6908100714        2.8737370232       -3.3542845964
 H        -9.8467168004        1.4498262475       -3.9829761841
 H       -10.2813329447        2.7837080226       -5.0528294399
 H        -7.7560462144        1.7678500882       -5.2133439847
 H        -7.2344844355        1.5403980488       -3.4582353212
 H        -6.5942477734        2.8184740715       -4.5402149416
 H        -9.4505975275        9.5252598800       -3.8132289471
 H        -8.3134747071       10.7645838000       -2.9798033338
 H        -9.4763326934        9.8332428851       -2.0476248884
 H        -5.9612231703        7.9443004669       -3.4272364959
 H        -6.0336607597        9.6450116250       -3.2649043611
 H        -6.9501711450        8.8681628942       -4.5285491230
 H        -9.6965831784       10.3670348503        2.3614722091
 H        -9.4235062376        9.7929409653        0.7642459587
 H        -8.1583860938       10.4537436297        1.6430397436
 H        -8.2574362731        7.4200277387        3.9508098603
 H        -8.8232021628        9.0934696129        4.2412085482
 H        -7.1812865167        8.8222096145        3.7458583084
 H       -15.2722179564        5.5036616501        0.6033730249
 H       -15.4731067021        3.7673777552        0.4185324157
 H       -14.0948108363        4.5376192616       -0.5179372615
 H       -14.9736270558        5.3202818703        2.9485839345
 H       -13.9665960520        4.1579438686        3.7150832160
 H       -15.1352490127        3.5074942508        2.8446207922
 H       -10.3321558695        0.6806444152        4.7133619963
 H       -11.4631443123        0.0555605240        3.5184446112
 H       -11.4795160346        1.8103036386        3.9591345761
 H        -7.8961816777        2.0767244379        2.5439082321
 H        -8.3793160536        1.4019462965        4.1409697359
 H        -9.0966342519        2.9407789161        3.5886569481
 H       -11.1717528850       -5.3966210052       -1.2711501946
 H       -10.6238682421       -4.8783757804        0.3595354680
 H        -9.6601199047       -4.6208862940       -1.0988915179
 H       -12.0983329773       -3.6280527339       -2.7546543853
 H       -10.4434203849       -3.0911022785       -2.9266697268
 H       -11.7849821719       -2.0078021142       -2.6533068692
 Na       -9.5396563657        5.1266480522        0.1624484078
