117

 C       -13.9458835985       -3.8991638014       -0.6558760684
 C       -12.7679812032       -3.2972492917       -0.0045940178
 O       -12.8393217252       -2.7715431736        1.1031231103
 C       -11.3375534941       -3.3431133090       -0.7617676886
 C       -10.4408770958       -2.2582632404       -0.0395990241
 O       -10.0058402890       -1.3336388618       -0.7093971053
 C        -9.9843629776       -2.4631831446        1.3981549844
 C       -10.4640816833       -1.3070173651        2.2448919643
 C        -9.4021569039       -0.1408737237        2.1382002874
 O        -8.3426464960       -0.3026416590        1.5993767448
 C        -9.7271527399        1.3505375979        2.6713985510
 C       -10.1666953759        2.2171182039        1.4797206959
 O        -9.6617001574        3.3321482506        1.3206553341
 C       -11.1365882915        1.6274383240        0.3818252572
 C       -12.3960450910        2.5954434897        0.1221850246
 C       -13.1699863933        2.9923050463        1.4005614723
 O       -13.5195646434        2.2931549527        2.3107305930
 C       -13.5924233490        4.4390334562        1.4085110968
 C       -12.2806728670        5.3229733461        1.4657204713
 O       -11.6230376906        5.4896218892        0.4299438179
 C       -11.8761943987        5.8713538668        2.8825985628
 C       -10.4151204882        6.2362780184        2.9820605197
 C       -10.1887260083        7.6883965377        2.3183299177
 O       -11.1388511795        8.3668939852        1.9876144970
 C        -8.8106848983        8.3899261089        2.4014129285
 C        -7.8285227170        7.4902359026        1.5025889837
 O        -8.1759142981        6.3761031155        1.1666743130
 C        -6.4424403444        8.0812621643        1.0707494655
 C        -6.2212171550        7.9553146029       -0.4274503363
 C        -7.2485596256        8.9074155921       -1.2245127291
 O        -7.5140435016        9.9423055357       -0.6889407553
 C        -7.7711004057        8.5526956212       -2.7354999038
 C        -8.5670849135        7.2063652792       -2.7727221272
 O        -8.5651395183        6.4222705091       -1.8400922170
 C        -9.4004809377        6.8690267024       -4.0502702705
 C        -9.7020291219        5.3939756214       -4.2260411859
 C        -8.4593414465        4.5182480624       -4.3422105844
 O        -7.4133561218        4.9084085763       -4.8636148834
 C        -8.5720993238        2.9968936961       -3.7703451376
 C        -8.5558345700        3.2268092379       -2.2550493123
 O        -9.6695324102        3.2380353295       -1.7642789483
 C        -7.2238152632        3.6003343986       -1.5057214525
 C        -9.9078363972        2.4172920895       -4.2055815556
 C        -7.5263818190        2.0487444026       -4.2755531996
 C        -8.7454091772        9.6786965762       -3.1413526020
 C        -6.6627409231        8.3920581334       -3.7044099517
 C        -8.9221197864        9.7700145897        1.7968043389
 C        -8.4045357557        8.5098880133        3.9049415020
 C       -14.3886186901        4.7136645542        0.0726289321
 C       -14.6333328283        4.6562953792        2.5618930731
 C       -10.9548669162        1.3333304384        3.7349451843
 C        -8.4880015565        1.8534471012        3.4662527962
 C       -10.7884394164       -4.7914906455       -0.8042041071
 C       -11.5792209952       -2.9496219487       -2.2735246575
 H       -13.6933553349       -4.7967568120       -1.2915826584
 H       -14.5239045241       -3.2342238587       -1.2486448615
 H       -14.6630651073       -4.1724182621        0.1485250464
 H        -8.9120610652       -2.5730036432        1.4419801575
 H       -10.3625057207       -3.4068062949        1.6392154760
 H       -10.5590640139       -1.6357470915        3.2226390883
 H       -11.4485031096       -0.8775986595        1.9774967720
 H       -11.5328429296        0.7081315414        0.8432436232
 H       -10.6441429583        1.4028192773       -0.5507742400
 H       -12.9829469787        2.0459092455       -0.6231303370
 H       -12.0949811599        3.4655978921       -0.4806518789
 H       -12.3106097322        5.2470757041        3.6993110859
 H       -12.4916160994        6.7892861435        2.9537963602
 H        -9.8358993572        5.3353949133        2.6191017352
 H       -10.1415179906        6.3851740122        4.0585785987
 H        -5.6192435461        7.5207830400        1.5825563779
 H        -6.3760901637        9.2040383866        1.2974936054
 H        -6.2972113307        6.9156932793       -0.7413698640
 H        -5.1986471367        8.4457509707       -0.6561182711
 H        -8.8907822047        7.1769250411       -4.9695345149
 H       -10.3667369214        7.3419866257       -4.0775462883
 H       -10.3956234747        5.2415052524       -5.0658776398
 H       -10.2643219344        5.0876569791       -3.3739786812
 H        -6.3770908617        3.0523204366       -1.7712752799
 H        -7.3517983657        3.4782554573       -0.4714445483
 H        -7.0729510832        4.6761884914       -1.6698293687
 H       -10.7135498773        3.0927624773       -3.9800301770
 H       -10.1025613176        1.3784832346       -3.8367118192
 H        -9.9308602885        2.2921748581       -5.2319510604
 H        -7.2836276344        2.3140139993       -5.2696943888
 H        -7.9236351881        1.0255727639       -4.1971318156
 H        -6.5980747808        2.1079022285       -3.7061412387
 H        -8.8828841206        9.7669976973       -4.2650021017
 H        -8.3244170687       10.5877691057       -2.7004372130
 H        -9.6212113381        9.4130347854       -2.6985077691
 H        -5.8124648735        7.7497162298       -3.3843022436
 H        -6.3248172042        9.3984967428       -4.0215173059
 H        -7.0506709598        8.0271397697       -4.7047855622
 H        -9.6212647818       10.4373740708        2.4366146577
 H        -9.3223487661        9.8419993418        0.7661944886
 H        -7.9813669351       10.3145889795        1.8188385835
 H        -8.2041301864        7.5353111404        4.3233275754
 H        -9.2014295771        9.0207095180        4.4220164279
 H        -7.5343886061        9.2345439592        3.9282036477
 H       -14.8929002499        5.6244397222        0.4020460746
 H       -15.1115339618        3.9704299420       -0.0387461597
 H       -13.7866459442        4.9210769977       -0.8021797827
 H       -14.7912436710        5.7188104624        2.7144965205
 H       -14.5483524946        4.1595459678        3.5531700149
 H       -15.5719636226        4.2069752600        2.2417042937
 H       -10.7615199397        0.6830648249        4.5266415315
 H       -11.9255181124        1.0813876393        3.2365385451
 H       -10.9029664760        2.3823844208        4.0908991895
 H        -7.6073494435        1.6761626826        2.8558824595
 H        -8.4143568629        1.2161685955        4.3804798681
 H        -8.6831488826        2.8744610710        3.8318331495
 H       -11.3820361161       -5.4334403241       -1.4572364138
 H       -10.8488110623       -5.2610038912        0.1989149897
 H        -9.7494630864       -4.8245123325       -1.0979895222
 H       -12.0710889447       -3.7938695788       -2.8031000565
 H       -10.5611292212       -2.7919926309       -2.7282747092
 H       -12.1913156953       -2.0281741442       -2.4314090182
 Na       -9.6073611143        5.0160808727       -0.2266899554
