117

 C       -14.0236445274       -4.1463717035       -0.5435920602
 C       -12.8376211183       -3.4819705362        0.1869537800
 O       -12.9613774262       -2.9265573639        1.2747571771
 C       -11.5139409363       -3.3522494649       -0.6663615378
 C       -10.4079897036       -2.3831921334       -0.0096201772
 O        -9.8719608516       -1.5362330720       -0.6999032594
 C       -10.0920871893       -2.4683782049        1.4887071688
 C       -10.2946156904       -1.2837565664        2.3413888046
 C        -9.2092512844       -0.1803647812        2.1794784686
 O        -8.1686456073       -0.3701967325        1.5983461366
 C        -9.5848966418        1.2451235919        2.8487691722
 C       -10.1338660222        2.2423643324        1.7139470650
 O        -9.6012623593        3.3394309579        1.6619047664
 C       -11.2277150459        1.8428197580        0.7456684468
 C       -12.1629968443        2.9993286380        0.1493262255
 C       -13.3081228704        3.3189043131        1.1086499727
 O       -13.7691191649        2.5328564464        1.8812947926
 C       -13.6288457877        4.8604764001        1.2150923202
 C       -12.3528762745        5.5650204628        1.5908430546
 O       -11.6794660584        6.1218288547        0.6942388596
 C       -12.0118300121        5.7745876490        3.0146828826
 C       -10.5802825021        6.3606246497        3.1985995456
 C       -10.2991512164        7.7073707879        2.5115351993
 O       -11.2518472226        8.3413844238        2.1138713535
 C        -8.8763419057        8.3014196419        2.3709868304
 C        -8.0160358137        7.5165573208        1.3620463323
 O        -8.2003482373        6.3228078990        1.2004751128
 C        -6.7012014419        8.1932797686        0.9739453924
 C        -6.5123306146        7.9915294337       -0.5264100121
 C        -7.3821101037        8.9199761305       -1.3762423749
 O        -7.6981968980        9.9964548709       -0.9664455461
 C        -7.6185018822        8.4334972679       -2.9025271941
 C        -8.4858419081        7.1071185426       -2.8964002509
 O        -8.5306319328        6.3968549023       -1.9066596048
 C        -9.3387482533        6.7527854173       -4.1187740511
 C        -9.7484268567        5.2584503353       -4.1681944215
 C        -8.5091476147        4.4237232139       -4.2582552106
 O        -7.4016496030        4.9170874245       -4.4443029880
 C        -8.5609559022        2.8448019923       -4.0251223147
 C        -8.6240263008        2.9720363625       -2.5052536346
 O        -9.7617202466        3.2578213793       -1.9555094944
 C        -7.3696557642        2.9855371180       -1.6798532673
 C        -9.7417802478        2.0771568235       -4.5770435024
 C        -7.2552167498        2.1977848505       -4.5438616456
 C        -8.4445647585        9.5596661288       -3.6121042021
 C        -6.2900942073        8.2173174708       -3.5269012894
 C        -8.9503643371        9.7587902563        2.1141394659
 C        -8.0878014013        8.1075442494        3.6822712021
 C       -14.1717586762        5.3319233347       -0.1684218041
 C       -14.9017078989        5.0434515534        2.1618411763
 C       -10.7067073052        1.1834797987        3.9468861711
 C        -8.2712651340        1.7853681039        3.5119489399
 C       -10.8589267200       -4.7386914602       -0.6184782391
 C       -11.7646328564       -2.8848120480       -2.1332381886
 H       -13.7947153383       -5.1790843553       -0.8151686343
 H       -14.1722694295       -3.6803869919       -1.4937919306
 H       -15.0006893816       -4.1933462253       -0.0351424543
 H        -9.0297893688       -2.8341036894        1.5002794626
 H       -10.6592457003       -3.3415831493        1.8444523623
 H       -10.2932357785       -1.6298741897        3.4093407840
 H       -11.3092575282       -0.8878973881        2.2128527288
 H       -11.8915124371        1.1592630210        1.2757384452
 H       -10.6682876656        1.2672982905        0.0029979602
 H       -12.4664878514        2.6843392548       -0.8469907573
 H       -11.6491203401        3.9560383451       -0.0956988158
 H       -12.3135938690        4.8907301334        3.5921300080
 H       -12.7659641262        6.4640397602        3.3587238411
 H        -9.7738879270        5.6518585853        2.9341378280
 H       -10.5338675192        6.6079501468        4.2427158109
 H        -5.9488499412        7.5873054464        1.3924737793
 H        -6.5997196760        9.2046681216        1.2469967353
 H        -6.6474152253        6.9389130569       -0.7705197838
 H        -5.5376534163        8.2968297449       -0.7806007885
 H        -8.8331537869        6.9728170643       -5.0710719205
 H       -10.2789794562        7.3114570212       -4.1513418835
 H       -10.3909297677        5.1142674279       -5.0896612915
 H       -10.3292290015        5.0188174783       -3.2215251770
 H        -7.1312981951        1.9061320177       -1.4388049319
 H        -7.5144914859        3.5401694552       -0.7200907795
 H        -6.5024651985        3.3856941171       -2.2724364200
 H       -10.6880857032        2.6392260623       -4.3459361698
 H        -9.7582858597        1.0885303289       -4.0915909310
 H        -9.7771510877        1.7921698323       -5.6098940812
 H        -7.3855013877        1.9690452798       -5.5460376829
 H        -7.0699249805        1.2884401419       -3.9734395228
 H        -6.3926033241        2.9100063990       -4.3831647086
 H        -8.9199094064        9.2235620741       -4.5576039567
 H        -7.8268562746       10.4442581072       -3.7637709880
 H        -9.1851192366        9.7146426928       -2.8944957215
 H        -5.9620638485        7.2588706487       -3.2819933861
 H        -5.5908774579        9.0162840841       -3.3282867297
 H        -6.4236425021        8.2717694126       -4.6406633243
 H        -9.6780330052       10.2545278476        2.7519794023
 H        -9.2472814680       10.0061862801        1.1439642758
 H        -8.0451371096       10.2125546763        2.3025468550
 H        -8.0679993292        7.0531973167        3.9529251242
 H        -8.5453754659        8.6614326565        4.4563686258
 H        -7.0987250677        8.4726036412        3.4166801309
 H       -14.2016707591        6.4293067070       -0.1685126393
 H       -15.0893014233        4.7767888592       -0.1460321055
 H       -13.5652073288        5.0066501438       -1.0360603321
 H       -15.2283430598        6.0565261526        2.1815106282
 H       -14.7361676750        4.7488669338        3.2674170661
 H       -15.7252124357        4.4786903533        1.8061878818
 H       -10.3848772235        0.4518125248        4.6215973947
 H       -11.7060712427        0.8825546654        3.5411430766
 H       -10.8063615879        2.1772550254        4.4441485781
 H        -7.4768944371        1.5704770014        2.8533134980
 H        -8.0637783973        1.2593213011        4.4625598843
 H        -8.4191511922        2.8233108591        3.8113415306
 H       -11.6263728455       -5.5244916886       -0.7162808252
 H       -10.4336249037       -4.9713654994        0.3552374995
 H       -10.0623817711       -4.8261379532       -1.3317769741
 H       -12.4437344408       -3.4443888282       -2.7178137280
 H       -10.7884987796       -2.9734549974       -2.5959563359
 H       -11.9820792734       -1.8764214175       -2.1089382427
 Na       -9.6191717159        5.1131118224       -0.1329476191
