117

 C       -14.0378445340       -4.1589657987       -0.4271224496
 C       -12.8936472007       -3.4057330380        0.1886050778
 O       -13.0202261687       -2.9713988465        1.3104434099
 C       -11.5136337031       -3.3463973362       -0.6126077541
 C       -10.4687723315       -2.3525601163        0.0632666286
 O        -9.9353078072       -1.5376577026       -0.6587651432
 C       -10.0249283014       -2.5581137401        1.5387664062
 C       -10.2472308789       -1.2857515138        2.3587520168
 C        -9.2562792674       -0.1320185271        2.1391795796
 O        -8.1741608471       -0.3583983540        1.6386129495
 C        -9.5709316908        1.2676823828        2.8313225311
 C       -10.0910331497        2.2877331134        1.7861076801
 O        -9.6112964974        3.4074869676        1.6065901456
 C       -11.2806552676        1.7895817345        0.8247599217
 C       -12.0990572716        2.9727574262        0.2676901653
 C       -13.2433609955        3.4783537883        1.1278384462
 O       -13.8854781562        2.6870862629        1.7873793613
 C       -13.7529169489        4.9836326541        1.0664834803
 C       -12.4293365717        5.8377436830        1.5743983122
 O       -11.6537527094        6.2061218226        0.7155330281
 C       -11.9416482908        5.7898427979        3.1277324700
 C       -10.5448681339        6.3264336071        3.3108746656
 C       -10.3874356025        7.7631618877        2.5645561437
 O       -11.2855273911        8.4060330077        2.1728933156
 C        -8.8782570392        8.3081790956        2.4478374028
 C        -8.0348073968        7.4872816569        1.4172081510
 O        -8.2649568268        6.3433676593        1.1029011584
 C        -6.7566946803        8.1731977127        0.9073096338
 C        -6.3733899377        8.0012606994       -0.5925930871
 C        -7.3486020533        8.9061682795       -1.4921271786
 O        -7.8438495922        9.9262195452       -1.0534808577
 C        -7.6595409597        8.3839496747       -2.9116281715
 C        -8.5496423200        7.1277839202       -2.9239578597
 O        -8.6057442237        6.3524424169       -1.9844895048
 C        -9.4009317114        6.7599694834       -4.2179047871
 C        -9.7555021178        5.2871568984       -4.2078402990
 C        -8.4447097938        4.4491538283       -4.3452355886
 O        -7.3911716649        5.0300487884       -4.3904587182
 C        -8.4980371053        2.8016124734       -4.0495381538
 C        -8.6240451881        2.9210964142       -2.5012266756
 O        -9.6701092922        3.2881597030       -1.9860448246
 C        -7.3931990620        2.6473731317       -1.5542727633
 C        -9.7488130803        2.1638951218       -4.6561865796
 C        -7.1674247006        2.0882249479       -4.5837472299
 C        -8.3432542015        9.5492772214       -3.8118995971
 C        -6.2093623961        8.0690706742       -3.5486440400
 C        -8.9459443675        9.8577713807        2.2183029006
 C        -8.0922923085        7.9648474893        3.7940999099
 C       -14.0984282084        5.6070650687       -0.3632530074
 C       -14.9671089686        4.9633865368        2.0361546439
 C       -10.5693765389        1.1319504190        4.0126026844
 C        -8.2680217185        1.7463763411        3.5170304345
 C       -10.8213363187       -4.7900001171       -0.6719951161
 C       -11.7614635857       -2.9648466864       -2.0340601796
 H       -13.7178583266       -5.2193555696       -0.6570462037
 H       -14.3361887783       -3.8104222616       -1.3815980403
 H       -14.9167462460       -4.3008645429        0.2023439959
 H        -8.9707789419       -2.8222157330        1.4503908875
 H       -10.4950855517       -3.4216208487        1.9403530183
 H       -10.2060427965       -1.5227844690        3.3676612034
 H       -11.2992094152       -0.9381283880        2.2211315669
 H       -11.9654504235        1.0807426954        1.3087642569
 H       -10.6963165889        1.2718357983        0.0945177147
 H       -12.6203892489        2.6950743909       -0.6904084382
 H       -11.4346083852        3.7479114070       -0.0945509095
 H       -12.0814257248        4.7309694065        3.4233340413
 H       -12.6353347872        6.2605637856        3.8286572987
 H        -9.7368338765        5.6979384415        2.8542024421
 H       -10.4502125738        6.4219500329        4.4084191102
 H        -5.9340339903        7.7876318602        1.4760653068
 H        -6.8490112312        9.2895536119        1.0534825754
 H        -6.4169636998        6.9925655814       -0.9057635392
 H        -5.2995146081        8.3975307684       -0.7289702653
 H        -8.9165066859        6.9450246817       -5.1920405336
 H       -10.3390308051        7.2946469288       -4.2701432752
 H       -10.5593143607        5.0733578651       -4.9863479638
 H       -10.1079046113        5.1042510413       -3.1824720078
 H        -7.2987696905        1.6498536401       -1.2045985855
 H        -7.5272689718        3.3309952231       -0.7121948277
 H        -6.4298827918        2.9028689214       -2.0957392312
 H       -10.6637098582        2.5395594520       -4.1913266434
 H        -9.6862707778        1.0116817990       -4.5744125757
 H        -9.8573309993        2.2929900608       -5.7079709560
 H        -7.4235111451        1.5396470890       -5.4901975084
 H        -6.8409781962        1.3795224923       -3.8437568652
 H        -6.4354873110        2.7898462788       -4.7038839552
 H        -8.5923515735        9.1412933352       -4.8138293466
 H        -7.5431949578       10.2857916866       -3.9069708806
 H        -9.1683061811        9.9656663818       -3.3349548063
 H        -5.7752759130        7.0680095502       -3.1571066259
 H        -5.6027545943        8.9379890198       -3.3339006773
 H        -6.2615562860        8.0227811352       -4.6504162445
 H        -9.7382695019       10.3244446299        2.8058744888
 H        -9.2444344236       10.0779206338        1.2127642540
 H        -8.0347121044       10.3713482643        2.4396602276
 H        -8.1417802160        6.9316927980        3.9630631688
 H        -8.5749062768        8.4453401872        4.6075026074
 H        -7.0472641149        8.2576579868        3.6014545606
 H       -14.0383986838        6.6905417533       -0.2170585463
 H       -14.9451241146        5.1523992807       -0.7344771196
 H       -13.2680967066        5.3527022150       -1.0109782226
 H       -15.4255013892        5.9383812385        2.2837014791
 H       -14.6812717181        4.5407610918        2.9279724589
 H       -15.8224718475        4.3810392577        1.5832208590
 H       -10.1210487661        0.4678334066        4.7291204377
 H       -11.5808551181        0.7556093251        3.6974589155
 H       -10.7323709006        2.1581121813        4.4316240620
 H        -7.3641187341        1.7487240007        2.8852048420
 H        -8.0774156481        1.0113665514        4.3064194576
 H        -8.4914563191        2.6538787615        4.0904894747
 H       -11.5971024810       -5.4801981814       -0.9513293302
 H       -10.5542777640       -5.1739001331        0.3362837261
 H        -9.9381006279       -4.8412017971       -1.3105905916
 H       -12.3251994486       -3.7211758165       -2.5108312962
 H       -10.8554521058       -2.8843049790       -2.5707056375
 H       -12.2490469103       -1.9931441573       -2.0274951415
 Na       -9.6087827643        4.9971926567       -0.0302071472
