117

 C        -1.4638189300        3.0531957914        7.5765549735
 C        -2.6123347335        4.1316073390        7.4609898776
 O        -3.3545032851        4.3695143059        8.3599506371
 C        -2.8358184248        4.8861054527        6.0467372496
 C        -3.9863603833        4.1050902774        5.2098148603
 O        -3.8138884935        3.4758929573        4.1830372218
 C        -5.3728782555        4.4789959929        5.7258040299
 C        -6.4661445881        3.5257203573        5.3712987191
 C        -7.6494914132        4.4380476219        4.8417523683
 O        -7.6617852954        5.6296331970        4.9386690326
 C        -8.9627077978        3.6051012256        4.1730328195
 C       -10.2072443901        4.4594703398        3.8714889714
 O       -11.2925903216        4.2784006665        4.3722857587
 C        -9.9565801367        5.7206472436        3.0752703850
 C       -11.2453656941        6.2297091828        2.4602409489
 C       -11.3807031041        5.6043238624        1.0320637968
 O       -10.6960130533        4.7040406387        0.6122289241
 C       -12.4386800941        6.2591961285        0.1089236527
 C       -13.2817361946        5.0287302420       -0.4913738813
 O       -13.2531150168        4.7688455364       -1.6425674781
 C       -13.9220892817        4.1485245190        0.6210707866
 C       -14.7003619208        2.9585158708        0.0246532075
 C       -13.6731805824        1.8037196559       -0.4013141046
 O       -12.5431755328        2.1333834273       -0.1431304439
 C       -14.0434042156        0.5060981239       -1.2748614139
 C       -13.1998769093        0.7424204059       -2.6062422075
 O       -12.0180503849        1.0230321402       -2.4710562334
 C       -13.7857968707        0.3044380492       -3.8884090396
 C       -12.8375965422        0.4683984892       -5.1359472291
 C       -12.6839370416        1.9269113074       -5.6396312982
 O       -13.3972390345        2.7810017536       -5.1026691594
 C       -11.6600783683        2.2929612693       -6.7783559901
 C       -10.4673713196        3.0223433619       -6.1186081631
 O        -9.3782113453        2.5053345671       -5.8452393785
 C       -10.6904967705        4.4793314025       -5.9450857288
 C        -9.5390808603        5.2669479726       -5.2502395146
 C        -9.5704743038        4.9081953158       -3.7039591952
 O       -10.6570207681        4.6258231582       -3.2037213313
 C        -8.2347398510        4.6873680023       -2.9300578642
 C        -8.2353933624        3.1785504230       -2.7085356157
 O        -9.0968709784        2.6572343709       -2.0407790490
 C        -7.0350086899        2.3042999618       -3.1995402330
 C        -7.0423734040        5.4219123525       -3.4942185997
 C        -8.4234538860        5.2900916201       -1.4635559405
 C       -11.0634276256        0.9134862534       -7.3832449260
 C       -12.4505982857        3.1364506681       -7.8421602238
 C       -13.5572091127       -0.6974492475       -0.4951293051
 C       -15.5773307858        0.3817404155       -1.5245851756
 C       -13.4270690820        7.1511478724        0.9335153962
 C       -11.9720174153        7.0491247396       -1.0828504713
 C        -8.6621332497        2.8473036513        2.8987942842
 C        -9.3900463391        2.4355420148        5.1340102657
 C        -3.1668302574        6.3686959607        6.4266624172
 C        -1.5310030826        4.7654393651        5.1882996716
 H        -1.3744251600        2.2905737778        6.8127842041
 H        -1.6048559747        2.4512577304        8.5223585025
 H        -0.5223021097        3.5042300501        7.4988836276
 H        -5.5579634103        5.4980065057        5.3583757478
 H        -5.4089905851        4.6367321806        6.7753247802
 H        -6.8473554905        2.9826377359        6.3027117712
 H        -6.1868006079        2.7932390411        4.5404492298
 H        -9.0859627798        5.6014833108        2.3957604772
 H        -9.5063461219        6.4659473496        3.6996132241
 H       -11.2636148274        7.3387820650        2.4518152993
 H       -12.0678377902        5.8601293600        3.1101451617
 H       -14.5075884227        4.8371587336        1.3229351298
 H       -13.1695015227        3.8160015226        1.3236225038
 H       -15.4452997713        3.2605150089       -0.7243589838
 H       -15.2918227021        2.4230025850        0.8790451628
 H       -14.6090021026        0.9709758928       -4.1242485912
 H       -14.0280255161       -0.7252239046       -3.7343780757
 H       -13.3158071201       -0.0890067022       -5.9051865312
 H       -11.8851495119        0.0499610189       -4.9799840068
 H       -11.7258687038        4.7562113535       -5.6138143109
 H       -10.5415774517        4.9139833335       -6.9784581395
 H        -9.5872842052        6.3100066819       -5.5766460817
 H        -8.6115073591        4.9655800965       -5.7328289079
 H        -6.9700772799        1.3053458590       -2.6986654870
 H        -6.1829708763        2.8757207089       -3.0201851728
 H        -7.1734465454        2.1392573525       -4.2571593022
 H        -7.3050795913        6.4889669650       -3.4611592193
 H        -6.7722664026        5.1033733877       -4.4842747182
 H        -6.1181355835        5.2161171939       -2.8233902863
 H        -9.1819589246        4.7796829873       -0.8180832151
 H        -8.7568588126        6.2857453518       -1.4911110322
 H        -7.4187549563        5.3945258460       -1.0599540028
 H       -11.9349706623        0.3699497446       -7.8162628845
 H       -10.7053040377        0.3336118696       -6.5474634110
 H       -10.2991148083        1.0581219660       -8.1789395280
 H       -13.2489885241        3.6005661858       -7.2557990707
 H       -12.8636662082        2.5919571718       -8.7495633990
 H       -11.9261356543        4.0013220479       -8.2769866359
 H       -14.1929987452       -0.9534066650        0.4045653994
 H       -12.5644261985       -0.3769083678       -0.1617081758
 H       -13.4484386189       -1.6146023465       -1.0958314925
 H       -16.1578620613        0.7533431100       -0.6122773315
 H       -15.6665198075       -0.6719855816       -1.7921155254
 H       -15.9105275713        1.0337134724       -2.2895553768
 H       -14.1258194180        7.7283234132        0.2823745510
 H       -12.8846504245        7.8027090083        1.4981630133
 H       -14.1353215171        6.4997454052        1.5306530581
 H       -11.3228303761        6.4250526824       -1.6873025112
 H       -11.3924447030        7.9593096439       -0.8554248712
 H       -12.7756319651        7.3549362093       -1.7737965116
 H        -7.8509359540        2.1566059983        3.1191593325
 H        -8.4168939200        3.5162489366        2.0773619720
 H        -9.4752636479        2.2029821499        2.4994334300
 H        -9.5685355196        2.8827573841        6.1451069889
 H        -8.4701305462        1.7710885623        5.1785032487
 H       -10.2513153474        1.8967274918        4.6864211283
 H        -3.8985643798        6.4828306392        7.2319182998
 H        -3.5876282844        6.9398524167        5.6131142089
 H        -2.2008837903        6.8315386582        6.8749250836
 H        -1.4856189399        3.7780786188        4.7081929173
 H        -0.6142971843        4.8886883172        5.7864140093
 H        -1.4668982876        5.4711244527        4.2758006438
 Na      -11.2189157885        3.1430757069       -1.5203703803
