117

 C       -14.0371522338       -4.2341685342       -0.3615382515
 C       -12.8511784221       -3.4810217609        0.2785350469
 O       -12.9590815574       -2.9128958730        1.3403496499
 C       -11.5503155474       -3.3943155117       -0.5529411695
 C       -10.4521854784       -2.4186326823        0.0580443604
 O       -10.0743515571       -1.4600066429       -0.5685946410
 C        -9.9819456699       -2.6114049263        1.5459025603
 C       -10.2975492801       -1.3028063306        2.3749234544
 C        -9.2638347990       -0.1700458915        2.2071291310
 O        -8.2085343697       -0.2572983916        1.6322893215
 C        -9.5817634384        1.2528599771        2.9074713324
 C       -10.0442302389        2.2495402745        1.8108939882
 O        -9.5618809590        3.3570215873        1.6633233108
 C       -11.3378879729        1.8558499179        0.9520518241
 C       -12.0292039576        2.9397074208        0.2240987039
 C       -13.2643638788        3.5465595160        1.0080574780
 O       -13.9208349074        2.8157439460        1.7285017276
 C       -13.7120385247        5.1566171373        1.0757155722
 C       -12.4354626128        5.8049853424        1.5752559701
 O       -11.6319644671        6.1902018771        0.7611266548
 C       -12.0125694438        5.8470186681        3.0290063982
 C       -10.6370576712        6.4052075628        3.2386698686
 C       -10.3729980903        7.7376222498        2.6591784781
 O       -11.3143555786        8.4562682136        2.3226678448
 C        -8.8692287804        8.2442250370        2.5865092722
 C        -8.0389198097        7.5914484747        1.3868879421
 O        -8.3230039936        6.4448646466        1.0188779553
 C        -6.7285814484        8.2671325545        0.8431450967
 C        -6.4541662700        8.0723865589       -0.6519368934
 C        -7.4231032640        8.8029786738       -1.5767405773
 O        -7.9713701378        9.8041167594       -1.1335486460
 C        -7.6074155476        8.3559631321       -3.0268897887
 C        -8.6025025401        7.0738676970       -3.0095289321
 O        -8.6638511891        6.4124024653       -1.9832470087
 C        -9.4354885081        6.7582544411       -4.2078530916
 C        -9.7257265675        5.2234784676       -4.3152785389
 C        -8.3556315962        4.4038096726       -4.2864866700
 O        -7.3137954847        4.9894989477       -4.4358592602
 C        -8.4574714467        2.8945202000       -3.9950363159
 C        -8.5660719277        2.8858850617       -2.4490087138
 O        -9.5475195512        3.3142690323       -1.9819948182
 C        -7.4353137056        2.3492072834       -1.5260913124
 C        -9.7249423505        2.3279839647       -4.6774724156
 C        -7.2206580161        2.1565598950       -4.5394729633
 C        -8.1373023931        9.5025914472       -3.8907577070
 C        -6.2447804317        7.8364467277       -3.6593783758
 C        -8.9213966670        9.7767983889        2.3389066577
 C        -8.1076129243        7.9216283524        3.9617912060
 C       -13.9746601468        5.6927188841       -0.3612413300
 C       -14.9460644223        5.2022572581        1.8890885584
 C       -10.5990100845        1.0813456150        4.0012707501
 C        -8.1755189528        1.8113147077        3.3929539435
 C       -10.8483515434       -4.8196005859       -0.5848588009
 C       -11.8025523633       -2.9488720397       -2.0342303811
 H       -13.9707056820       -5.2698064620       -0.6597193125
 H       -14.4226010594       -3.7095205647       -1.2937758443
 H       -14.8447616404       -4.2883363353        0.3556352893
 H        -8.9292848504       -2.7548213094        1.5253685432
 H       -10.4069478142       -3.5255523098        1.9499859948
 H       -10.2790919577       -1.5915411853        3.4020117268
 H       -11.2920804084       -0.9104375945        2.2440934127
 H       -12.0806945580        1.3676919814        1.5896046433
 H       -10.9010132982        1.0768746625        0.3081664075
 H       -12.4930575929        2.5796850709       -0.7262533316
 H       -11.3139502006        3.6390874478       -0.1616818817
 H       -11.9721514306        4.7987515729        3.3709788463
 H       -12.8499892406        6.2026808092        3.6798875849
 H        -9.8961224661        5.8095471676        2.6705853003
 H       -10.4904818538        6.3592851449        4.3603616858
 H        -5.8417189050        7.8102606288        1.4134390870
 H        -6.8091814106        9.3744221673        1.0310374776
 H        -6.5414764845        6.9820842024       -0.8764695491
 H        -5.4012909143        8.4129444208       -0.9598164577
 H        -8.9198138541        6.9858250254       -5.1301672195
 H       -10.3352375014        7.3888216801       -4.2200841517
 H       -10.1863017975        5.0065266540       -5.2674900340
 H       -10.3189860194        4.9562935821       -3.4665987993
 H        -7.5523743482        1.3115262034       -1.2936992232
 H        -7.4441809826        2.9313605930       -0.6286003928
 H        -6.5209942615        2.4069965018       -2.0219432236
 H       -10.6393479181        2.4708398253       -4.1428454929
 H        -9.6223825132        1.2988660991       -4.9413050114
 H        -9.8446705450        2.8231628575       -5.6847519807
 H        -7.5767208807        1.5336379569       -5.3811579922
 H        -6.8912312894        1.4889203185       -3.7957368933
 H        -6.4443817848        2.8509563842       -4.7589832580
 H        -8.1557375966        9.1370469152       -4.8692213410
 H        -7.3977468935       10.2830830625       -3.8130390178
 H        -9.1735187482        9.9169912759       -3.5380580941
 H        -5.8754232936        7.0056475136       -2.9885768382
 H        -5.5363301588        8.7311151631       -3.6286198112
 H        -6.3286297386        7.4387249976       -4.6883265662
 H        -9.7104929294       10.2921310072        2.8431344541
 H        -9.1920983222        9.9430345536        1.2624085614
 H        -7.9427398381       10.3357012901        2.5545485836
 H        -8.0232093473        6.8525352600        4.1104933662
 H        -8.7901194726        8.2915516434        4.7394696250
 H        -7.1362188095        8.3356250506        3.9204873189
 H       -14.1264391089        6.7190395282       -0.2731995113
 H       -14.6757909984        5.0459472413       -0.8993376133
 H       -13.0457942760        5.5445269393       -0.8309145201
 H       -15.4744051737        6.1532719924        2.0398539873
 H       -14.7562552158        4.8046480915        2.8646677138
 H       -15.6929594101        4.6061023626        1.3235772869
 H       -10.2053874776        0.3278476979        4.7869039732
 H       -11.5314017909        0.7523466981        3.5796253934
 H       -10.8437996162        2.0474743145        4.4218569766
 H        -7.4714395738        2.0139325310        2.5253995898
 H        -7.6958921304        1.0155643133        3.9650998456
 H        -8.3038693682        2.6464193701        4.1043148240
 H       -11.4560336476       -5.5029410579       -1.1622439008
 H       -10.7457381662       -5.3092475878        0.3851036805
 H        -9.8357871581       -4.6966343076       -1.0301955606
 H       -12.2101491494       -3.8379448421       -2.5430184364
 H       -10.9409282438       -2.6352409164       -2.5946002376
 H       -12.5448723187       -2.1168518269       -1.9823364240
 Na       -9.6288107120        4.9032700534       -0.0566515158
