117

 C       -13.9297983837       -4.3271457640        0.0014377902
 C       -12.7815575545       -3.4594247292        0.4763759207
 O       -12.8209615319       -2.8195719664        1.4916463364
 C       -11.5156779931       -3.4111843111       -0.4434952560
 C       -10.6309244881       -2.2471142641        0.1013592574
 O       -10.5744954974       -1.1416862737       -0.4008969594
 C        -9.9925765789       -2.5131898489        1.4872336348
 C       -10.2386596040       -1.3363346487        2.4545854764
 C        -9.3575564059       -0.1341170291        2.1731835283
 O        -8.4075978494       -0.2698088163        1.4467440417
 C        -9.5652287892        1.3140708864        2.8230850865
 C       -10.1996468509        2.2453071139        1.7298032846
 O        -9.6702636831        3.2918781076        1.4147345585
 C       -11.5464622940        1.7729715784        1.1048691792
 C       -12.2170617963        2.9108833943        0.3172565367
 C       -13.3830388682        3.6389958462        1.0426480183
 O       -14.2440844807        3.1198622633        1.7348860037
 C       -13.5149327374        5.2340791920        0.8490011395
 C       -12.1661703259        5.7754305030        1.3309891978
 O       -11.2474540417        5.9258671889        0.5695816293
 C       -12.0213708391        6.1047020939        2.8179112362
 C       -10.6283110321        6.3353509388        3.2648188147
 C       -10.3436869597        7.8403002555        2.8834046394
 O       -11.2244416464        8.6742576145        2.7032581952
 C        -8.8284904046        8.3045035663        2.8105665145
 C        -8.1341566283        7.7981501442        1.4900519586
 O        -8.4610795678        6.6844562177        1.0992538302
 C        -6.9852669856        8.5128166243        0.8063077474
 C        -6.6060225438        7.9895140726       -0.6309078684
 C        -7.5226853580        8.6572215532       -1.6612132384
 O        -8.2771901165        9.5371536036       -1.2555914005
 C        -7.5357585390        8.1322235599       -3.1139749214
 C        -8.6577176025        7.0393358099       -3.0691630704
 O        -8.9566198813        6.4805911250       -2.0271650638
 C        -9.4072408069        6.7854465568       -4.4044980348
 C        -9.5610230946        5.2566548223       -4.5176979179
 C        -8.2278255790        4.3964713303       -4.3372035030
 O        -7.1609204337        4.8782323185       -4.5745656024
 C        -8.3493495340        2.9190762804       -3.9707852937
 C        -8.4857072618        2.8006676955       -2.3960751678
 O        -9.3491884218        3.4307983510       -1.8471354789
 C        -7.7488936878        1.6874160842       -1.7105810376
 C        -9.6985195945        2.2160974680       -4.4564088325
 C        -7.1707669400        2.0752541891       -4.5200127523
 C        -7.8948993859        9.2612265301       -4.0935329472
 C        -6.1405190382        7.4624725397       -3.4989082722
 C        -8.8726350302        9.8665229662        2.7517569909
 C        -7.9839353348        7.7814530526        4.0188792881
 C       -13.6595423289        5.4205420787       -0.6786205168
 C       -14.6897813745        5.7549431824        1.6138310620
 C       -10.5331785929        1.1072370661        4.0350495452
 C        -8.2221756634        1.7475382240        3.4188115986
 C       -10.7737310046       -4.7992112224       -0.3837499534
 C       -11.8533896143       -3.1072694281       -1.9806354474
 H       -13.7132194994       -5.2555557309       -0.5376710649
 H       -14.4318697228       -3.7565309506       -0.7508923873
 H       -14.6045587945       -4.6925681049        0.7346714623
 H        -8.8845761436       -2.6023712254        1.3266466591
 H       -10.3283956094       -3.4485385005        1.9464720545
 H       -10.0487328947       -1.7180486909        3.4405405444
 H       -11.3563132988       -1.0759771176        2.4855152809
 H       -12.1973449993        1.2728052900        1.8426949845
 H       -11.2889195170        1.0126843451        0.3796443617
 H       -12.6248134163        2.4134649993       -0.5930981659
 H       -11.5062095685        3.6263062707       -0.0502530300
 H       -12.4473949600        5.3183003467        3.4274075371
 H       -12.7501658941        6.8954911205        2.9760515548
 H        -9.9419531808        5.7075195747        2.7024550090
 H       -10.5487789920        6.2302775028        4.3405736697
 H        -6.1712064412        8.4206770910        1.4478073703
 H        -7.2345514254        9.5744171023        0.7166893187
 H        -6.5713737883        6.9733164160       -0.7486774169
 H        -5.5689758658        8.3463219080       -0.8850680555
 H        -8.8805440856        7.1308107905       -5.3067136973
 H       -10.3920396152        7.2408671687       -4.4832584399
 H        -9.8416955273        4.9952619759       -5.5911335651
 H       -10.2858536670        5.0384297863       -3.7202291230
 H        -7.8047266890        0.6942223531       -2.1728139485
 H        -8.2196467069        1.7026702958       -0.6854233856
 H        -6.6450115939        1.9055187879       -1.6795109519
 H       -10.6106867863        2.7204318914       -4.1912683245
 H        -9.8177114644        1.2518994411       -3.8899389590
 H        -9.7221229888        2.0443448002       -5.5376798961
 H        -6.8638965259        2.5377189005       -5.5052218701
 H        -7.4836905107        1.0427331210       -4.7213386480
 H        -6.4188612353        2.1275034153       -3.8095789748
 H        -7.7791287045        8.8881870652       -5.0896804182
 H        -7.1854582572       10.0364100397       -3.8906314550
 H        -8.8989654446        9.7359692007       -3.9129458963
 H        -5.9574811215        6.4932788382       -2.9671925112
 H        -5.3306794050        8.1326618390       -3.2893118319
 H        -6.2843110571        7.1589992302       -4.4854383576
 H        -9.3923200738       10.2758033124        3.5690855235
 H        -9.3915233200       10.2049632611        1.8912980133
 H        -7.8869128017       10.2916881858        2.7324630131
 H        -7.9371316633        6.7134045832        4.0213446605
 H        -8.4586420877        8.1618734917        4.9333529052
 H        -6.9501925891        8.1770378209        3.8999972507
 H       -13.8297923061        6.4977719400       -0.9139712997
 H       -14.4352952901        4.7429636855       -1.0627814079
 H       -12.7163037695        5.0042894415       -1.0691879958
 H       -14.6867527397        6.8474046969        1.6862709207
 H       -14.6852692507        5.3957553814        2.5696533707
 H       -15.6357008781        5.5680802287        1.0673165552
 H       -10.0736658153        0.3816561469        4.7446178980
 H       -11.5124081932        0.7495090907        3.7715358742
 H       -10.7333970953        2.0091280395        4.5977092731
 H        -7.4304414360        1.6568511677        2.6408060907
 H        -7.9651845543        1.1251919956        4.2468756734
 H        -8.2230051698        2.7957322046        3.6944557305
 H       -11.3174033450       -5.5599864919       -0.8984685833
 H       -10.6082260875       -5.1024574473        0.6630339216
 H        -9.8046691109       -4.7378586281       -0.8927084561
 H       -12.4089899612       -3.8954129340       -2.4408360562
 H       -10.8871391063       -3.2090493770       -2.3722976523
 H       -12.2212168797       -2.1003905995       -2.2227799153
 Na       -9.4475560053        5.0654312486       -0.2516399430
