117

 C       -13.9723040233       -4.3828165791        0.0997046552
 C       -12.8153472265       -3.4400470937        0.4444357009
 O       -12.8326727312       -2.8433932717        1.5137397985
 C       -11.4500879349       -3.3764147017       -0.4177839171
 C       -10.7245104495       -2.1631307544        0.1831696023
 O       -10.7306241681       -1.0757757489       -0.3693875142
 C        -9.9578460455       -2.4410939484        1.5044021786
 C       -10.1925715115       -1.3034279764        2.4886172255
 C        -9.3208845248       -0.1642355759        2.1228368036
 O        -8.4148623171       -0.1566765716        1.3246321848
 C        -9.5781979471        1.2334938573        2.8755523043
 C       -10.2685646738        2.1955089466        1.7882060753
 O        -9.6581994049        3.1722847747        1.3857330337
 C       -11.6043376755        1.7515278588        1.1063362791
 C       -12.3783055825        2.8158591213        0.3539384134
 C       -13.3921350921        3.6516098741        1.1383574537
 O       -14.2912593239        3.1734996893        1.7671526088
 C       -13.4743558487        5.1717849238        0.8109380586
 C       -12.1358395233        5.7961957724        1.2802458478
 O       -11.2362849509        5.9683523251        0.4713307301
 C       -12.0107568135        6.0535472171        2.8105937485
 C       -10.6301091836        6.4352053096        3.2272792718
 C       -10.2603809370        7.9519510593        2.9487976972
 O       -11.1754388131        8.7512228359        2.7722930199
 C        -8.7515299690        8.4472353314        2.8711855016
 C        -8.1615538856        7.7924774701        1.5131586556
 O        -8.4610498407        6.6178941669        1.2341333496
 C        -7.0110142177        8.5972221845        0.8838775014
 C        -6.6222684106        8.0847170970       -0.4665587187
 C        -7.5809080759        8.6691495548       -1.5791332315
 O        -8.3237922259        9.5698565340       -1.3364550902
 C        -7.4998388775        8.1194730012       -3.1165726528
 C        -8.6162018455        7.0211044744       -3.2088591086
 O        -9.0360461342        6.4931868254       -2.1694717342
 C        -9.3202111832        6.5900468902       -4.4851603007
 C        -9.6241148759        5.0794146655       -4.5592471417
 C        -8.3041248521        4.2857073516       -4.4570927419
 O        -7.2483295053        4.8965755344       -4.5912710733
 C        -8.3512066194        2.7639473467       -3.9682575503
 C        -8.5465763855        2.6919657811       -2.3773046329
 O        -9.2678766871        3.5086089358       -1.8803553732
 C        -7.8190363084        1.5518445732       -1.7140182008
 C        -9.6866481113        2.1062580679       -4.4973827260
 C        -7.1214915019        2.0162418835       -4.5447924161
 C        -7.7693383865        9.2590361671       -4.0609500289
 C        -6.1223766765        7.5066019223       -3.3376953567
 C        -8.7786841423        9.9635390464        2.9597206996
 C        -7.8850166804        7.7997208375        3.9296989807
 C       -13.5539756961        5.3471980901       -0.7992745411
 C       -14.7521767656        5.8313572063        1.4572163476
 C       -10.6723734531        1.1470393564        4.0195115915
 C        -8.2214148034        1.8442762850        3.2849370930
 C       -10.7120257919       -4.7002721134       -0.2915610446
 C       -11.8606614357       -3.1699468071       -1.9382311683
 H       -13.7554187750       -5.2986712135       -0.3645284189
 H       -14.6730462455       -3.9171822852       -0.6374545981
 H       -14.5016689672       -4.7150513458        0.9732855139
 H        -8.9290535685       -2.4401365238        1.2066168791
 H       -10.2007140750       -3.4209401388        1.9033159982
 H       -10.0006265447       -1.5939644709        3.5092498574
 H       -11.2325128269       -1.0257736869        2.4766227777
 H       -12.2253995050        1.2924706703        1.8592480231
 H       -11.3965253838        0.9556516497        0.3898506095
 H       -12.9010652950        2.2460452407       -0.4388623611
 H       -11.7031518889        3.5387930538       -0.1476630505
 H       -12.3633302089        5.1702781988        3.3521364214
 H       -12.8259104702        6.7781342626        3.0221942799
 H        -9.9282554911        5.8549931875        2.6120898499
 H       -10.4586500941        6.3003271730        4.3347253957
 H        -6.1374055335        8.5867291872        1.5884658478
 H        -7.3669589069        9.6096615289        0.7983663756
 H        -6.6609237919        6.9700642874       -0.5048765464
 H        -5.5629268789        8.3053233176       -0.7037501152
 H        -8.7080214968        6.7763288199       -5.3535844615
 H       -10.2563132938        7.1124789155       -4.7227824337
 H       -10.1439920190        4.8821692103       -5.5128904364
 H       -10.1614817983        4.8903181590       -3.6081014089
 H        -7.6852622412        0.6241653689       -2.3445363796
 H        -8.3197439264        1.3337274609       -0.7520856315
 H        -6.8101765597        1.8985904103       -1.5592984649
 H       -10.5744188019        2.7218252942       -4.3108065251
 H        -9.9292394626        1.2332384496       -3.9732420986
 H        -9.6541419373        1.9434173320       -5.6306031702
 H        -6.7620396221        2.5773802507       -5.3851966565
 H        -7.3960936698        1.0762578101       -4.8795633213
 H        -6.3509212339        2.0030669218       -3.7644432894
 H        -7.7937039311        8.8225398160       -5.0138405393
 H        -7.0276375579       10.0360643020       -3.9892928711
 H        -8.7665173926        9.7587197123       -3.8037161160
 H        -6.1055677843        6.5789089291       -2.8148372575
 H        -5.3586235654        8.1399721329       -2.8031996790
 H        -6.0067971368        7.2190459861       -4.3994107904
 H        -9.2150971530       10.2980558382        3.8443993863
 H        -9.3653032989       10.3135895614        2.1354979379
 H        -7.7918141195       10.3975855066        2.8607336217
 H        -8.0485840501        6.7220897272        3.8680995760
 H        -8.1488263018        8.2200800977        4.9170076652
 H        -6.8675660068        8.0009817269        3.7354717802
 H       -13.5675377686        6.3921754124       -0.9550362367
 H       -14.4728482982        4.8567818638       -1.2596159853
 H       -12.7051465032        4.8635910158       -1.2296339624
 H       -14.7202482534        6.8960165265        1.5466078206
 H       -15.0344176630        5.3901293279        2.4931370538
 H       -15.5495246107        5.6692332178        0.7799174086
 H       -10.4017062624        0.4733408082        4.9151273893
 H       -11.6654955253        0.8615507954        3.7080749737
 H       -10.7952723150        2.1299178634        4.4716942499
 H        -7.5233592791        1.6021000737        2.4608813738
 H        -7.8481159546        1.4006798855        4.2006887523
 H        -8.1722585537        2.9345958251        3.2874641108
 H       -11.2960128546       -5.5190467890       -0.7072187038
 H       -10.3489923478       -4.9010566125        0.7021022594
 H        -9.8479046683       -4.6554658594       -0.9843009850
 H       -12.6903390848       -3.7930935378       -2.1961198433
 H       -11.0311402479       -3.4318046440       -2.5313324930
 H       -12.0734327222       -2.1403747050       -2.0990106477
 Na       -9.2856094306        5.0793984730       -0.2903607020
