117

 C       -13.9469091007       -4.4137947185        0.1466564632
 C       -12.8209086079       -3.5517092454        0.5460255161
 O       -12.8785824561       -2.8259857286        1.5261714454
 C       -11.5225029828       -3.4103637969       -0.4267908121
 C       -10.7347136383       -2.1545168913        0.1644685243
 O       -10.9015988572       -1.0302701424       -0.2862401841
 C        -9.9106666547       -2.3876771468        1.4618016999
 C       -10.0958494086       -1.2468129724        2.5030792748
 C        -9.3249002439       -0.0317354798        2.1097761030
 O        -8.4666469060       -0.0620995001        1.2537862761
 C        -9.6754239162        1.3264500514        2.8021225799
 C       -10.3335287632        2.1785671257        1.7306913559
 O        -9.6537989174        3.1175255410        1.3233286215
 C       -11.6543823628        1.6758455780        1.1815601846
 C       -12.4696760530        2.6990306523        0.3337239568
 C       -13.5838628865        3.6031121446        1.0678821756
 O       -14.2459283993        3.0914055589        1.9296533160
 C       -13.5099410765        5.1883528440        0.6296963144
 C       -12.1811522952        5.8691302524        1.2365328586
 O       -11.2201308861        6.0421240363        0.4848380459
 C       -11.9303836758        6.0656226400        2.7519620448
 C       -10.5377185749        6.5436618291        3.2107558350
 C       -10.2723968703        8.0359837859        2.9891367600
 O       -11.1388073807        8.8156151994        2.8593358077
 C        -8.7768201663        8.4801903483        2.9167058893
 C        -8.1604115099        7.8429262391        1.6547447537
 O        -8.3453631515        6.7059497465        1.3185581336
 C        -7.1012355827        8.6784666562        0.9154843234
 C        -6.7470520463        8.1617217355       -0.4499439476
 C        -7.6272955796        8.7137197398       -1.5629436586
 O        -8.3961788297        9.6262387446       -1.3906050753
 C        -7.4969613295        8.0630184920       -3.0461795867
 C        -8.6101715665        6.9606287383       -3.2430237065
 O        -9.0938416875        6.4417035609       -2.2450623788
 C        -9.1713255681        6.4848539600       -4.6476870535
 C        -9.6775605096        5.0032161685       -4.5313259311
 C        -8.4092932468        4.2143091125       -4.3879194581
 O        -7.3050418391        4.7082515162       -4.6156194145
 C        -8.4320165890        2.6562331530       -4.0849475394
 C        -8.4782827460        2.5923081549       -2.5271602462
 O        -9.1462103346        3.4801586231       -1.9247581568
 C        -7.9186842646        1.4854853506       -1.6583241209
 C        -9.6454646463        1.9542190497       -4.6511785457
 C        -7.0904541774        1.9871343294       -4.5468723514
 C        -7.6501928867        9.3061569132       -4.0398195624
 C        -6.0724918397        7.4449013838       -3.2351853918
 C        -8.6238418085        9.9863326364        3.0871020760
 C        -7.8134931289        7.7809858352        4.0289787421
 C       -13.5072593826        5.3534688179       -0.8946793034
 C       -14.7090761851        5.8846964030        1.2408933497
 C       -10.6071919948        1.2055058201        4.0362593911
 C        -8.3958442795        1.9554472749        3.2149822454
 C       -10.6919932285       -4.6648798559       -0.2316021744
 C       -11.9237959534       -3.1673061002       -1.8772419479
 H       -13.7180026709       -5.3384731012       -0.3730816957
 H       -14.6380085746       -3.9310024591       -0.5470753571
 H       -14.4920966167       -4.8081695685        1.0171560930
 H        -8.8917073405       -2.6313210854        1.2735571054
 H       -10.3958257285       -3.2640386007        1.8609931139
 H        -9.7321808380       -1.5800649185        3.5045384176
 H       -11.1071502494       -1.0996777254        2.6230011040
 H       -12.1936319393        1.3560558010        2.0623844369
 H       -11.5352464259        0.7389111349        0.5868734869
 H       -12.8974092272        2.0951491965       -0.4734993086
 H       -11.7572914154        3.4564927778       -0.1067757401
 H       -12.2755637604        5.1229019273        3.2442413615
 H       -12.6652254214        6.8086968639        3.1398708020
 H        -9.6357968547        6.0368420329        2.8058608032
 H       -10.5196302829        6.5798108152        4.3307192990
 H        -6.1001549306        8.6256415437        1.5049007562
 H        -7.3896893783        9.7396949840        0.8596276737
 H        -6.7893539882        6.9811502885       -0.5003809767
 H        -5.6936504661        8.3339835195       -0.6249069920
 H        -8.5039302437        6.5461453273       -5.4987035297
 H       -10.0397556167        7.0812520797       -4.9678073386
 H       -10.1859223083        4.6651286697       -5.3884816828
 H       -10.2025767931        5.0036950832       -3.5837275986
 H        -7.8027136729        0.6019329450       -2.2769393584
 H        -8.6207286751        1.2961067372       -0.8882405388
 H        -6.9414959760        1.6867897430       -1.2478258447
 H       -10.5995426328        2.4172805314       -4.3258782120
 H        -9.7277820789        0.9494704971       -4.2833714927
 H        -9.6352147035        2.0003480021       -5.7164203570
 H        -6.7248199184        2.4319526955       -5.4007014587
 H        -7.2984847997        0.9496094794       -4.7200774840
 H        -6.3522162307        2.1588805440       -3.7300703983
 H        -7.8048751661        8.8590509712       -5.0595783534
 H        -6.8150149714       10.0364399416       -4.0248793070
 H        -8.4851801728        9.8305466053       -3.7512667758
 H        -5.8681319190        6.5651849092       -2.6385575688
 H        -5.3981652588        8.2139705313       -2.8114760872
 H        -6.0090105844        7.1292030674       -4.3309599931
 H        -8.9538659001       10.2469866858        4.1425260748
 H        -9.1687395326       10.6113149004        2.3671250477
 H        -7.5779658626       10.2241550968        3.0181329477
 H        -7.9012901947        6.6847044771        4.0415768791
 H        -7.9788149227        8.2796781178        4.9590293845
 H        -6.8089233370        8.0619919726        3.7684226784
 H       -13.5251092197        6.4025845567       -1.1130509793
 H       -14.4395357879        4.9515898278       -1.2352309207
 H       -12.7057940948        4.8141404430       -1.3620264389
 H       -14.6750636877        6.9787416570        1.3434871278
 H       -14.8445610445        5.4248260878        2.2673238820
 H       -15.6138443109        5.6436983537        0.6814807029
 H       -10.1393211856        0.6304240323        4.8054674935
 H       -11.6425795036        0.7670326881        3.9173161753
 H       -10.7373342259        2.2033458465        4.5412943459
 H        -7.6522576542        1.8051741321        2.4478206417
 H        -8.0819704868        1.4612720587        4.1681301233
 H        -8.3767505884        3.0641790767        3.2544097178
 H       -11.1557843456       -5.6045063285       -0.5932632471
 H       -10.3343639404       -4.7102296525        0.7817639141
 H        -9.8225897199       -4.5786631824       -0.8720854907
 H       -12.8665507710       -3.6204337819       -2.1327609850
 H       -11.1128810452       -3.4440841021       -2.5773525717
 H       -12.0161160834       -2.1191920603       -1.9040151252
 Na       -9.1299097336        5.0950026385       -0.2513237445
