117

 C       -13.8841953216       -4.7730773965        0.3171950973
 C       -12.9187486723       -3.6779169532        0.7512978627
 O       -13.0899697312       -3.0697412666        1.7664961084
 C       -11.7254116932       -3.3847997981       -0.1240951034
 C       -10.9636270805       -2.1348959346        0.3962857591
 O       -11.2131162018       -0.9956972428        0.0389865835
 C        -9.8106069479       -2.2884191302        1.3821600767
 C        -9.8438363949       -1.0748800191        2.4165800422
 C        -9.2180018396        0.2621678599        2.0041941658
 O        -8.4515063552        0.3534727042        1.0591121591
 C        -9.7733527634        1.5826948832        2.6663384401
 C       -10.5929305392        2.3167032591        1.5678140583
 O       -10.1848294686        3.3019125166        1.0004619880
 C       -11.9648424290        1.7788087091        1.1743108420
 C       -12.7677853881        2.6689036695        0.2808572551
 C       -13.3107694459        3.8715078066        1.0732264528
 O       -13.6710237955        3.7163789349        2.2200394095
 C       -13.2348925204        5.3187035002        0.4920369500
 C       -12.0078094973        5.8894734985        1.0629220518
 O       -11.0215984211        5.9705232542        0.3396154572
 C       -12.0581580538        6.5497003330        2.4332245922
 C       -10.6851023467        6.6147556737        3.0277152331
 C       -10.1927326840        8.0993225594        3.1990379362
 O       -11.0083711938        8.9817579132        3.0837153799
 C        -8.6885519592        8.3521171002        3.2557445664
 C        -8.0255285377        7.8285836459        1.9178196573
 O        -7.8696373514        6.6764981129        1.6512858186
 C        -7.5977591845        8.9526770300        0.8313935091
 C        -6.9131235117        8.4564213090       -0.4715416644
 C        -7.7821317149        8.6968594890       -1.7675109724
 O        -8.6170332898        9.5837351854       -1.7149339309
 C        -7.5227016871        7.8719566596       -3.0239251595
 C        -8.5345012943        6.7188453477       -3.1068738817
 O        -9.0628717300        6.3360204928       -2.1027779920
 C        -9.0313419916        6.2726385417       -4.5276563062
 C        -9.3015709610        4.7587911091       -4.6652269289
 C        -8.0368043670        3.8947811966       -4.5895989997
 O        -6.9538821183        4.3051225283       -4.8316885384
 C        -8.2575199418        2.3459510359       -4.1128891956
 C        -8.5449386087        2.3688254117       -2.5736981363
 O        -8.8882657300        3.4816666719       -2.1102345748
 C        -8.5430959021        1.0437364111       -1.8916874962
 C        -9.6178116595        1.9160743083       -4.7352866314
 C        -7.0631688672        1.4638359154       -4.5721319345
 C        -7.6406954158        8.8416090885       -4.2304098288
 C        -6.1427249973        7.2093679082       -3.1276961955
 C        -8.4849955340        9.9182183060        3.5457744714
 C        -8.1095386669        7.5173807136        4.4379577701
 C       -13.2817038858        5.3536737876       -1.0365808499
 C       -14.5795943230        5.9686084175        0.9031073056
 C       -10.5755182132        1.4152729402        3.9549220294
 C        -8.5126647684        2.4689181466        2.9071971146
 C       -10.7650643467       -4.5920764062       -0.1983892412
 C       -12.1477118165       -2.9194302716       -1.5643358078
 H       -13.4067165835       -5.6199663289       -0.2154207328
 H       -14.6262070067       -4.4702475632       -0.3846258676
 H       -14.5109751764       -5.1872829196        1.1105736100
 H        -8.8585317377       -2.3046235073        0.8959990918
 H        -9.9383026690       -3.2206973934        1.9320724048
 H        -9.2425768956       -1.4637283129        3.2532708479
 H       -10.8062871181       -1.0373853465        2.7951639811
 H       -12.5481917992        1.4899808893        2.0177714388
 H       -11.7686582206        0.8449815625        0.6406488520
 H       -13.6777595005        2.1847308870       -0.0631137847
 H       -12.1113817296        3.0846900811       -0.5140049707
 H       -12.7141568245        6.0115531523        3.1516883167
 H       -12.4777015447        7.5396511545        2.1663554144
 H        -9.9069965794        6.0585096150        2.4210746032
 H       -10.6810528302        6.1925679198        4.0647791728
 H        -6.9327716509        9.6699890323        1.3832005939
 H        -8.4521854700        9.5275442867        0.5612568025
 H        -6.6040535402        7.3461608904       -0.3772192301
 H        -5.9647590315        8.9267456760       -0.6087801168
 H        -8.3770362586        6.4780481898       -5.3742712408
 H        -9.9479174496        6.8282585611       -4.7621122854
 H        -9.7691233082        4.6139994619       -5.6493975113
 H        -9.9871972974        4.4844500316       -3.8242317099
 H        -9.1238311917        0.3274321684       -2.4770881444
 H        -9.0000123713        1.1957841792       -0.8892861228
 H        -7.4692158834        0.7029223672       -1.7130594039
 H       -10.4090587274        2.6514622190       -4.4211481957
 H        -9.9076220947        0.8763242474       -4.3935438706
 H        -9.5939380958        1.8723779290       -5.7980696016
 H        -7.0765839232        1.3120149851       -5.6145771998
 H        -7.1085902609        0.5097135311       -4.0620244849
 H        -6.1993875580        2.0618025916       -4.4006497709
 H        -7.3151585057        8.3865050726       -5.2087585096
 H        -6.9606948070        9.6759140986       -4.0600961781
 H        -8.6040492924        9.2006449321       -4.2993957783
 H        -5.9707262243        6.4749911002       -2.2867297969
 H        -5.4904185739        8.0628079459       -2.9890452940
 H        -6.0520218420        6.7974240343       -4.1543238116
 H        -8.9709889615       10.0768566304        4.5133521546
 H        -8.8612689747       10.5899599220        2.8396894371
 H        -7.4880881298       10.1294121787        3.7013338729
 H        -7.9943278819        6.4908672798        4.0742389001
 H        -8.7879128952        7.5983767603        5.2589170316
 H        -7.1696123055        7.9380733005        4.8024235356
 H       -13.6718098819        6.3894373890       -1.2083419987
 H       -14.0751234354        4.7831909562       -1.4289908194
 H       -12.3100862163        5.3009694156       -1.5694421435
 H       -14.5937375395        7.0090366461        0.5456291934
 H       -14.7415336907        5.9592679453        1.9060308039
 H       -15.3849164524        5.3127861345        0.5595958089
 H       -10.1382002407        0.9073947464        4.7414613593
 H       -11.5306019880        0.8545391218        3.8083598113
 H       -10.7914669273        2.3932465894        4.4314401953
 H        -8.1203400684        3.0109864015        2.0790232233
 H        -7.7089944759        1.8762828385        3.3634405545
 H        -8.6857165430        3.2757677999        3.6188581120
 H       -11.2289073190       -5.4236255805       -0.7738091803
 H       -10.6116268678       -4.9687580418        0.8196824211
 H        -9.8019760329       -4.3260761131       -0.5973664990
 H       -12.4450551077       -3.7977657586       -2.0767280045
 H       -11.2859605534       -2.4524680750       -2.0342068747
 H       -12.9545473438       -2.2532871628       -1.5484787161
 Na       -9.0003839747        5.0907629951       -0.1296499870
