117

 C       -13.8343719309       -4.8152042516        0.3288163479
 C       -12.9453441506       -3.6978034360        0.8710171971
 O       -13.1639195356       -3.1203044770        1.9113976581
 C       -11.6801336379       -3.3131250212       -0.0920112108
 C       -10.9726659086       -2.0707947394        0.4140200251
 O       -11.3308013137       -0.9763716304        0.0075976938
 C        -9.7565750458       -2.2635123424        1.4617444515
 C        -9.7779997034       -1.0861120785        2.5058096453
 C        -9.2864915271        0.2268275733        1.9084431827
 O        -8.3887752707        0.3249833095        1.0998850514
 C        -9.7778006054        1.6751142028        2.5888734245
 C       -10.6504688726        2.4353600022        1.5130914780
 O       -10.3092325643        3.4361379649        0.9145594869
 C       -12.0371231059        1.7883583311        1.0953965730
 C       -12.8785463658        2.6820091639        0.2745380538
 C       -13.3091643229        3.9007265778        1.1601065854
 O       -13.4970221233        3.7974819833        2.3647098115
 C       -13.3776541773        5.3676663998        0.4051035313
 C       -12.0572040650        6.0759325162        0.9170820170
 O       -11.0116940496        6.0114837534        0.3156895071
 C       -12.1192985990        6.6230829295        2.3847854346
 C       -10.7403785242        6.5941662230        3.0651678184
 C       -10.2075185692        8.1444909356        3.1307861402
 O       -11.0343906185        9.0882854363        3.0842559527
 C        -8.6282465048        8.2973017317        3.3045989981
 C        -8.0006384809        7.8697052110        1.9392813827
 O        -7.8081153119        6.6763651717        1.7394907429
 C        -7.7589279015        8.9328923828        0.8103764510
 C        -7.0121200750        8.4160361034       -0.3780032731
 C        -7.8166191130        8.6475271486       -1.7778056343
 O        -8.6475447835        9.5361525476       -1.8478455723
 C        -7.4535033893        7.8525639539       -3.0362481558
 C        -8.6094386841        6.6514800753       -3.1072178837
 O        -9.1389241379        6.1320042851       -2.1351764323
 C        -9.0074840879        6.2511797824       -4.5305019796
 C        -9.2187636484        4.7097896572       -4.5313509620
 C        -7.9434022186        3.8578359477       -4.5635685082
 O        -6.8513160443        4.2419525843       -4.9138195732
 C        -8.2402473092        2.4283669960       -4.1465433649
 C        -8.5301033492        2.3595682436       -2.5901616412
 O        -8.7589817101        3.3947637917       -2.0031524901
 C        -8.7129696617        1.0383798025       -1.8818705340
 C        -9.6231725833        1.8954645911       -4.7647239439
 C        -7.1305128773        1.4663795550       -4.5747919066
 C        -7.6366767937        8.7946109731       -4.2408868172
 C        -5.9774925902        7.2813667485       -3.0128104948
 C        -8.3920649285        9.7852863800        3.5987971845
 C        -8.0354758610        7.4202960988        4.3878677783
 C       -13.2172684331        5.2895694630       -1.1747484148
 C       -14.6434460090        6.1826686725        0.8518617754
 C       -10.5209299686        1.4306967204        3.9017865354
 C        -8.4771774593        2.4672145487        2.8940730871
 C       -10.7047030727       -4.5255051232       -0.1888190574
 C       -12.2427315644       -2.9208526334       -1.5488545477
 H       -13.2404033393       -5.6412165526       -0.1469702208
 H       -14.5192549513       -4.5386275027       -0.4519076575
 H       -14.5565076452       -5.2532817100        1.0226143271
 H        -8.8359836482       -2.2417411953        0.9004181591
 H        -9.8457268810       -3.1933253195        1.9588304128
 H        -9.1654746053       -1.3347095756        3.3390295133
 H       -10.8119349265       -1.1048764862        2.9166462224
 H       -12.6195381794        1.4956659129        1.9829486587
 H       -11.8225492203        0.8550383769        0.5808517648
 H       -13.8543659901        2.2701130009       -0.0527307744
 H       -12.2624111063        3.1062465755       -0.5111967560
 H       -12.7120230820        5.8686527471        2.9541275143
 H       -12.6242615943        7.6011965821        2.3777946290
 H        -9.9905418084        5.9307766882        2.5309352469
 H       -10.8172808326        6.2535389084        4.1103361294
 H        -7.2512518219        9.7829000703        1.2827692253
 H        -8.7811982914        9.3599552575        0.4612280864
 H        -6.7005038927        7.3505126314       -0.2503724375
 H        -5.9964400123        8.9483026194       -0.4491495672
 H        -8.2906169446        6.4781299515       -5.3379020782
 H        -9.9154973247        6.7795020101       -4.8162689491
 H        -9.6790352949        4.4225212844       -5.4757411274
 H        -9.8683746081        4.4527913321       -3.7344163919
 H        -9.5693620605        0.5508187448       -2.2797087572
 H        -8.9263541346        1.3269888501       -0.8589797784
 H        -7.8181918453        0.4022512951       -1.8651819928
 H       -10.4276961260        2.5678322481       -4.6063575909
 H        -9.8377051530        0.8627797957       -4.3609386898
 H        -9.5093625108        1.7204177688       -5.8216144645
 H        -7.0597904246        1.4474742541       -5.6794701399
 H        -7.3826209495        0.4891217418       -4.2103232352
 H        -6.2269624595        1.8245107556       -4.2509948394
 H        -7.2787782606        8.3423851022       -5.1451387398
 H        -7.0726517632        9.6840732037       -4.1341219720
 H        -8.7590613735        9.0293647636       -4.3813488996
 H        -5.8926862426        6.5658377701       -2.0942671436
 H        -5.3040266107        8.1468442902       -2.9213545814
 H        -5.8141657798        6.7933045852       -3.9769161117
 H        -8.8371162646       10.0558068071        4.5225745037
 H        -8.9014773680       10.3357981741        2.8177334325
 H        -7.3392499231       10.1049312201        3.6253357659
 H        -8.0551331404        6.4189683335        4.0491800437
 H        -8.6127710956        7.5432773532        5.2832823561
 H        -6.9948571176        7.7553292115        4.6117385174
 H       -13.3743912946        6.2668069676       -1.6277912041
 H       -13.9290205601        4.6611568071       -1.6323579395
 H       -12.1799367997        5.0461794146       -1.3891284606
 H       -14.3195416212        7.2090284412        0.7166176366
 H       -14.8159858753        6.0468941259        1.9032135752
 H       -15.6140545872        5.8944500732        0.4046650610
 H        -9.8629617349        0.9660421576        4.6638852158
 H       -11.3203979556        0.6879376271        3.8529002365
 H       -10.8742251399        2.2971974185        4.4772225630
 H        -7.8514898199        2.7520200866        2.0025706418
 H        -7.8033905441        1.9655537931        3.5876768430
 H        -8.6622990349        3.4393502922        3.3658058184
 H       -11.2224463929       -5.4134742038       -0.5359713111
 H       -10.3770927688       -4.7782937322        0.8467644444
 H        -9.8038356251       -4.2949437269       -0.7651724785
 H       -12.5768504337       -3.8558695574       -1.8983519247
 H       -11.4522434108       -2.5853262171       -2.1550988137
 H       -13.0649102255       -2.2146839088       -1.5935863838
 Na       -8.9154598742        4.9943617605       -0.1721037786
