117

 C       -13.7719759613       -4.8214662216        0.3940580273
 C       -12.9054106594       -3.7243283918        0.8682228202
 O       -13.1458841254       -3.2034973749        1.9577466121
 C       -11.6661458496       -3.3602017126       -0.0529365689
 C       -10.9837787791       -2.0015551367        0.4768125446
 O       -11.2891532408       -0.8944839557        0.0687803613
 C        -9.8865834622       -2.0740570636        1.4886398779
 C        -9.7535614435       -0.9474758626        2.5312663950
 C        -9.2746197910        0.3179888264        1.9327927680
 O        -8.3936059452        0.2302451953        1.1038942992
 C        -9.7340399525        1.6553238371        2.4783071366
 C       -10.7172676657        2.3983234235        1.4579042626
 O       -10.3678703289        3.4580514119        0.9380023249
 C       -12.0595321517        1.7848918283        1.1476557547
 C       -12.9794691648        2.7247662456        0.3556960555
 C       -13.3214792846        4.0897758960        1.0894575095
 O       -13.3369802936        4.0189582740        2.2812198025
 C       -13.3828507113        5.4848690998        0.3719110426
 C       -12.0860055551        6.0845538653        0.9333287036
 O       -11.0580011194        6.1500454551        0.2703212789
 C       -12.1916812806        6.6024183955        2.3788655479
 C       -10.8234302444        6.7149514898        3.0975243918
 C       -10.1855420879        8.1195788380        3.0996800285
 O       -10.8394398623        9.0894940846        3.0740797748
 C        -8.6537791269        8.2658806812        3.2731551937
 C        -8.0801407625        7.8753527540        1.8524375280
 O        -7.8092767324        6.6573408146        1.6878222823
 C        -7.9546812048        8.8837375347        0.7871221956
 C        -7.2226685885        8.3531510520       -0.3822903432
 C        -7.8257348310        8.6920035706       -1.6830026937
 O        -8.6926809362        9.4815759247       -1.8215555892
 C        -7.4547629765        7.7764495308       -3.0275326679
 C        -8.4742982391        6.6674747789       -3.2034536481
 O        -9.0280632769        6.1135634576       -2.2148303172
 C        -8.8638364220        6.2570429483       -4.5574450419
 C        -9.2254938976        4.7488096125       -4.5817340198
 C        -8.0035197081        3.8148855044       -4.6227527790
 O        -6.8484932526        4.1879271910       -4.9198251158
 C        -8.3104285328        2.3322842411       -4.1182180389
 C        -8.6056155791        2.3466372263       -2.5032106185
 O        -8.5138280096        3.3615388510       -1.8744990292
 C        -8.8303910357        0.9821389731       -1.8529928327
 C        -9.5721791394        1.7663263374       -4.8634844408
 C        -7.1255904606        1.3735860647       -4.5480041403
 C        -7.6170937730        8.7118772025       -4.2161205425
 C        -5.9740346114        7.2610639344       -2.8805327468
 C        -8.2804400396        9.7628992933        3.6746734032
 C        -8.0335930395        7.3324124664        4.3663875169
 C       -13.2681046530        5.2323862859       -1.1623860550
 C       -14.6374107726        6.3008078395        0.7451356064
 C       -10.5036152798        1.4766874306        3.7819974881
 C        -8.5314039372        2.4891243720        2.7826539425
 C       -10.7162197811       -4.4879586527       -0.2057435592
 C       -12.3281285472       -3.0737203129       -1.4351636276
 H       -13.2397570299       -5.6644541173        0.0084963888
 H       -14.4844465255       -4.5534956825       -0.4388560550
 H       -14.5447989388       -5.1126347245        1.0988368648
 H        -9.0122616523       -2.0206159808        0.8038207573
 H        -9.8806686714       -3.0308743738        2.0017625681
 H        -9.0636050598       -1.3476525104        3.2671390041
 H       -10.7626631158       -1.0049259460        3.0502057800
 H       -12.5282423800        1.4357409675        2.1043870284
 H       -11.8515917704        0.8497409320        0.5950375847
 H       -13.9958982969        2.3182337825        0.2624234987
 H       -12.4831274045        2.9214113959       -0.5766767824
 H       -12.7720069060        5.8844579282        2.9553437917
 H       -12.7311431875        7.5564784381        2.2107780368
 H       -10.0896762463        6.0874116172        2.6290254697
 H       -10.8659280470        6.4002902121        4.1340926389
 H        -7.5070066298        9.7600290269        1.2509866040
 H        -9.0521189587        9.1921394031        0.5494973318
 H        -7.1955171460        7.2862035657       -0.4128796374
 H        -6.1133289499        8.6280368526       -0.3168641482
 H        -8.1761845706        6.5135682412       -5.3552980792
 H        -9.7653527249        6.8612905710       -4.7567018537
 H        -9.8930031009        4.4369704592       -5.3801016125
 H        -9.7709057879        4.5347661104       -3.6713901968
 H        -9.8448873947        0.6901850503       -2.1200634325
 H        -8.6624152941        0.9574733845       -0.8122851010
 H        -8.1539260766        0.3372462259       -2.2783117065
 H       -10.4304134516        2.3229679531       -4.5983640063
 H        -9.6816855078        0.7423662817       -4.7914760366
 H        -9.3774133647        1.9400909958       -5.9576362644
 H        -6.8987049895        1.6490805329       -5.5799533057
 H        -7.3563183696        0.3325770144       -4.4822267155
 H        -6.1694569086        1.6662824022       -3.9626806712
 H        -7.1781598668        8.3106827059       -5.1102118567
 H        -7.0396109403        9.6351115860       -4.0437331956
 H        -8.6952457049        8.9195782824       -4.4346629616
 H        -5.9400844183        6.6888234765       -2.0140771652
 H        -5.2809556143        8.1575955827       -2.8930503957
 H        -5.7498088317        6.6719891484       -3.7847523970
 H        -8.5779462409       10.0203305097        4.6819794725
 H        -8.7927574363       10.4756247167        2.9679238572
 H        -7.1562696487        9.9288049121        3.5665161045
 H        -8.2947032693        6.3097197780        4.0926679549
 H        -8.4840160728        7.5519144295        5.3580340888
 H        -6.9702958137        7.4421771857        4.3980562313
 H       -13.2518464937        5.9912149497       -1.8753391235
 H       -14.0770014791        4.4997088594       -1.4008201313
 H       -12.2939388290        4.8140343126       -1.2599884694
 H       -14.3343727828        7.3235755774        0.7855410744
 H       -15.0246718332        5.9869234649        1.8277283176
 H       -15.4816789031        6.1111922715        0.1095940012
 H        -9.8631884166        1.0256767522        4.6301064481
 H       -11.3344198605        0.8142036750        3.8060392049
 H       -10.8030907574        2.3884128481        4.2533582806
 H        -7.7760765193        2.4165050440        1.9464907309
 H        -7.9550453638        2.2249367566        3.6862289266
 H        -8.7052252200        3.5729096923        2.9001413976
 H       -11.2297103631       -5.3783947319       -0.5280379700
 H       -10.2099866573       -4.7633401173        0.7162969834
 H        -9.9376870476       -4.1371339163       -0.9161415033
 H       -12.9135140977       -3.9425742426       -1.7858306385
 H       -11.5692645221       -2.8358900079       -2.1610755659
 H       -12.9841113033       -2.1928367134       -1.3400584559
 Na       -8.8288322985        4.9453916294       -0.1216173547
