117

 C       -13.8103102841       -4.9508675650        0.4885218910
 C       -12.8795126499       -3.8090135262        0.9803747452
 O       -12.9912580569       -3.1945500243        1.9982067274
 C       -11.7143740698       -3.2907955071       -0.0301644903
 C       -11.0126948333       -1.9485653996        0.5229157141
 O       -11.3422241538       -0.8877559563        0.0147739260
 C        -9.8821519011       -2.1838973209        1.5847593448
 C        -9.8521993601       -1.0140095740        2.5638329941
 C        -9.2269653825        0.2805411122        1.9045070996
 O        -8.3724920783        0.2514032900        1.0372189208
 C        -9.7131469132        1.7356098243        2.4476967540
 C       -10.7632946803        2.4096418763        1.4287765205
 O       -10.3904800266        3.4461457438        0.9244600450
 C       -12.1604578850        1.8710148992        1.2241628408
 C       -13.1131082994        2.7587076481        0.3785998743
 C       -13.2545416187        4.1033539827        1.1166563162
 O       -13.3158800222        4.2238776746        2.3219769075
 C       -13.2863735928        5.3904804599        0.3231241141
 C       -12.0728745355        6.2589404869        0.8966413519
 O       -11.0365828281        6.2730417931        0.2552086465
 C       -12.1418193051        6.7424645368        2.3864262903
 C       -10.8015960032        6.7313004606        3.1340299058
 C       -10.2193773835        8.1497659626        3.1908287988
 O       -10.7940275680        9.1814791649        2.9993365302
 C        -8.5557093114        8.2060381520        3.2738567068
 C        -8.1442413654        7.7933107008        1.8564427706
 O        -7.9337567883        6.6079317572        1.6159204767
 C        -8.1114087472        8.8195267293        0.7639743581
 C        -7.3443744811        8.1991428603       -0.4424344878
 C        -7.9650961162        8.6399359909       -1.6981329173
 O        -8.7880103703        9.5111569094       -1.8190394377
 C        -7.3981350397        7.8928201479       -3.0295950182
 C        -8.3791836609        6.6354318318       -3.1847608915
 O        -8.8231833150        6.1019070749       -2.2013324079
 C        -8.7355799574        6.1440614921       -4.6292341403
 C        -9.2746984461        4.7184245869       -4.6968654890
 C        -8.1039944068        3.7532470488       -4.5238528990
 O        -7.0092873570        4.0689434325       -4.8895541415
 C        -8.3533159248        2.2968789778       -4.1205348339
 C        -8.4765696216        2.2541758273       -2.5793376513
 O        -8.2606396284        3.2426623930       -1.8867886030
 C        -8.9499738017        0.9403938426       -1.9082953981
 C        -9.5300608218        1.7029569948       -4.9075979147
 C        -7.0953311373        1.3846879244       -4.3784775197
 C        -7.4463804722        8.8144735393       -4.2510614619
 C        -6.0084753292        7.2385942801       -2.7851282938
 C        -8.1640096456        9.6369855401        3.6822446510
 C        -8.0592223928        7.2036978199        4.3842274891
 C       -13.3429064987        5.2808482214       -1.2433420894
 C       -14.5985089499        6.2870033245        0.6263285051
 C       -10.5780285834        1.6177319039        3.8031576928
 C        -8.5022554738        2.6534832816        2.5849875421
 C       -10.6604585432       -4.4316633181       -0.1732878068
 C       -12.3759540156       -3.0575432623       -1.4129285139
 H       -13.3715221288       -5.7973404605        0.0046930400
 H       -14.5224357667       -4.5807917001       -0.2634450352
 H       -14.5734392088       -5.2200189354        1.2005446643
 H        -8.9177624451       -2.1763499720        1.0104612855
 H       -10.0257808658       -3.1893660132        2.0919064684
 H        -9.3332730722       -1.3988575282        3.5084128568
 H       -10.8739192726       -0.9423922167        2.8398138574
 H       -12.6247418768        1.7551824030        2.2084546231
 H       -12.0806454333        0.8185227190        0.8433057964
 H       -14.1045095836        2.3566767918        0.4203438346
 H       -12.7429818248        2.9599224026       -0.6347045891
 H       -12.8571445525        6.1489056273        2.9274657389
 H       -12.4298252473        7.8040562338        2.3379812345
 H       -10.0118442601        6.1295169931        2.7675512020
 H       -10.9398103706        6.4417126960        4.1669840407
 H        -7.7495629823        9.8069826863        1.1174561751
 H        -9.1314465248        8.9678749568        0.5215171533
 H        -7.2536717197        7.1205565768       -0.4552493817
 H        -6.3685607581        8.5648756192       -0.4906524272
 H        -7.8663121823        6.1973699144       -5.2705229264
 H        -9.4687952980        6.8240196673       -5.0950116014
 H        -9.7837391097        4.4157236625       -5.6356706960
 H       -10.0995672130        4.6445538962       -3.9172054270
 H       -10.0304934893        1.0045568602       -1.8962110412
 H        -8.5130618487        0.7449799057       -0.9582586536
 H        -8.6279767343        0.1074656807       -2.5111701929
 H       -10.4421538464        2.1282117491       -4.4716425053
 H        -9.5170834343        0.6519152689       -4.9748017626
 H        -9.4601742979        2.0393601046       -5.9243605642
 H        -6.6473390404        1.6862871595       -5.3185721233
 H        -7.3365197496        0.2733599911       -4.3856089293
 H        -6.3248291339        1.6255165911       -3.5755187745
 H        -6.9913656747        8.3216284978       -5.1654504067
 H        -6.8490771251        9.7567171006       -4.1253906448
 H        -8.4115983921        9.0173288152       -4.5099847236
 H        -6.0747589402        6.5957270423       -1.9638753144
 H        -5.2024681805        7.9297347343       -2.8592122688
 H        -5.9482031352        6.6352136660       -3.6766679855
 H        -8.4576336245        9.7827707922        4.7906714048
 H        -8.7397143644       10.3998448466        3.1008241597
 H        -7.0922250945        9.8443228825        3.5762049635
 H        -8.5479443063        6.2153382869        4.1415299682
 H        -8.4260565786        7.4889363114        5.3872357812
 H        -6.9993920242        7.0515168862        4.3499453247
 H       -13.3993064932        6.2590210434       -1.7465692080
 H       -14.2218619150        4.6698560820       -1.5016782006
 H       -12.3934486820        4.9774202929       -1.7136820579
 H       -14.3776759883        7.3832511796        0.5783121676
 H       -15.0222431131        6.0284714631        1.5784005393
 H       -15.3909859346        6.0032742252       -0.0904044423
 H       -10.1712953050        1.0819914563        4.6110537584
 H       -11.5610366577        1.1456470832        3.7444606897
 H       -10.7498397397        2.5891735476        4.2593150676
 H        -7.7555033303        2.3587443096        1.8633428755
 H        -7.9453488446        2.5478148321        3.5438176144
 H        -8.6177589380        3.7482859983        2.5240238561
 H       -11.1959668191       -5.3198415925       -0.5341151221
 H       -10.1742333270       -4.7657892029        0.7140063159
 H        -9.9119492237       -4.0857666922       -0.8668799162
 H       -12.9482935720       -3.9456951596       -1.7939000627
 H       -11.5232085636       -2.8100319823       -2.1360166337
 H       -12.9962794831       -2.1586817048       -1.3804684109
 Na       -8.8052793225        4.9932633377       -0.0076296179
