117

 C       -13.7095712544       -4.9610539005        0.7539496242
 C       -12.7411260353       -3.8658728699        1.0844203118
 O       -12.7123482902       -3.2144476776        2.1357596652
 C       -11.7174194215       -3.3053394214       -0.0580123547
 C       -11.0802409697       -1.9944535599        0.5357702472
 O       -11.3516021576       -0.9166770717        0.0369112940
 C       -10.0793173194       -2.1702975871        1.7359422300
 C       -10.0937578421       -0.8395338700        2.6044289353
 C        -9.4543203951        0.3263746460        1.8220617113
 O        -8.4868484446        0.2884914099        1.1139465340
 C        -9.8346240404        1.9187667441        2.3917049868
 C       -10.8569685320        2.5095412556        1.4216898680
 O       -10.5593020838        3.3703332271        0.5750747950
 C       -12.2668791114        1.9211350774        1.3343538360
 C       -13.1038240170        2.8242958823        0.4192937380
 C       -13.1910587519        4.2581823077        1.1252730809
 O       -13.4535500905        4.3414148283        2.3059581060
 C       -13.2221340761        5.5893548203        0.3395216148
 C       -12.0017853359        6.4238034824        0.7995646329
 O       -10.9411756152        6.4123548841        0.2091798834
 C       -12.1877330272        7.0891668371        2.1285100152
 C       -11.0221960490        6.8569422110        3.1009857699
 C       -10.1260187100        8.1970846307        3.1924866362
 O       -10.6262291137        9.2479992240        2.9764928762
 C        -8.5477611157        8.0754835715        3.3014170429
 C        -8.2362292501        7.5790921578        1.9337647381
 O        -8.2400784693        6.3500062429        1.7742244620
 C        -8.2642626309        8.5634119643        0.7788012119
 C        -7.4637616766        8.2164337861       -0.4584694893
 C        -8.0323469840        8.6671443953       -1.8474964703
 O        -8.9016528536        9.4586149072       -2.0579742350
 C        -7.3914853051        7.9351555253       -3.0201353745
 C        -8.2627973883        6.6063415641       -3.2724192639
 O        -8.5666453208        5.8977867574       -2.2820695417
 C        -8.6550648335        6.1471198500       -4.7080543827
 C        -9.2076619548        4.6882473248       -4.6792440823
 C        -8.0661694209        3.6613577303       -4.5938460705
 O        -6.9067566178        4.0099119038       -4.8843610272
 C        -8.3543513834        2.2029273062       -4.0709592699
 C        -8.5329171024        2.1463565781       -2.4877364509
 O        -8.0407615278        2.9970518997       -1.7674963189
 C        -9.2680109332        0.9824048561       -1.8830070891
 C        -9.5514672021        1.4927615081       -4.8025678287
 C        -7.0149876524        1.4329998482       -4.3169656945
 C        -7.2682256411        8.8522069162       -4.2479386019
 C        -5.9552976896        7.2988045583       -2.8233341098
 C        -7.9243112704        9.4422384340        3.7109802694
 C        -8.1240920857        6.9820418432        4.3663812773
 C       -13.0203221444        5.4356254963       -1.1149622234
 C       -14.5595356884        6.2619567619        0.6600369332
 C       -10.3117432960        1.8329935996        3.8432218466
 C        -8.4953508822        2.6897848137        2.3987318907
 C       -10.7250616958       -4.5103387753       -0.2354309201
 C       -12.3483592102       -3.0066038149       -1.3980471538
 H       -13.2302566498       -5.6760267917        0.0987997396
 H       -14.6126595095       -4.6839033504        0.2225512372
 H       -14.1836017836       -5.4219700759        1.6043460284
 H        -9.0488028352       -2.2850026437        1.4303633355
 H       -10.4038041949       -3.0292874776        2.2679749326
 H        -9.6078987446       -1.0169236452        3.4986597977
 H       -11.1753816020       -0.6704813200        2.8046624514
 H       -12.6997987992        1.8960561377        2.3375435729
 H       -12.3534251723        0.9139151433        0.9830587317
 H       -14.1128838375        2.3414423331        0.3907500861
 H       -12.6713184774        2.9439288623       -0.5640321210
 H       -13.0376003619        6.5175088072        2.5351392853
 H       -12.3599141393        8.1785029873        2.0586862058
 H       -10.2863460555        6.0730301246        2.7371502420
 H       -11.3965462060        6.5040765690        4.0867402691
 H        -7.9189867241        9.4899636875        1.1607954742
 H        -9.3281851614        8.7532349044        0.4714949515
 H        -7.3259847102        7.1326244100       -0.5295270459
 H        -6.4393869312        8.7182945739       -0.2662826263
 H        -7.8099560827        6.1819707268       -5.4238533746
 H        -9.4131495519        6.7963710521       -5.1431157751
 H        -9.9188864718        4.4830142151       -5.5093158989
 H        -9.8610747431        4.5955249247       -3.8277341315
 H       -10.1264220467        1.4283205725       -1.3107435519
 H        -8.5226255626        0.4598678364       -1.2182177686
 H        -9.5670952451        0.1768340957       -2.5634779581
 H       -10.4766025681        1.9383318686       -4.4547923219
 H        -9.5092924534        0.4191911568       -4.5259123476
 H        -9.4437099014        1.5312892269       -5.9302469723
 H        -6.6800749171        1.4948798869       -5.3554458599
 H        -7.1650505594        0.4326600575       -4.0437107245
 H        -6.2666801657        1.8042299656       -3.6285403701
 H        -7.0856135931        8.2224203182       -5.0755114836
 H        -6.4637354566        9.5501478330       -4.1726319391
 H        -8.2076329347        9.4344628656       -4.5700006208
 H        -6.0582039182        6.4211943787       -2.1996848763
 H        -5.3058675006        8.1350599217       -2.4899495612
 H        -5.5463132493        7.0679776963       -3.8029384754
 H        -8.0300794191        9.6175700984        4.7070661752
 H        -8.3689606123       10.2531273213        3.1912129851
 H        -6.8687882070        9.3913850483        3.4716106279
 H        -8.4596223082        5.9733822990        4.2727341978
 H        -8.5112957628        7.3597395270        5.3194641846
 H        -7.0140209913        6.9949834937        4.3501121748
 H       -12.9975274625        6.3684564775       -1.6587947988
 H       -13.7729669805        4.7364622538       -1.5575677617
 H       -11.9919701611        5.1263659395       -1.3052645363
 H       -14.6686873325        7.1129004575        0.0389881731
 H       -14.6530657185        6.5721988827        1.7751026717
 H       -15.3641952667        5.6137045892        0.3812386813
 H        -9.4617861838        1.4976731487        4.5225056909
 H       -11.1191618568        1.1943254129        4.0961274294
 H       -10.6403777825        2.7614971243        4.2525492534
 H        -7.9935167805        2.7457880576        1.4344935854
 H        -7.7042732143        2.3406055969        3.0025707877
 H        -8.6421355074        3.6547170762        2.8114541838
 H       -11.1595549998       -5.2760661742       -0.8350123459
 H       -10.4132815457       -5.0062804730        0.6878905193
 H        -9.8384285701       -4.1232743130       -0.7417325255
 H       -12.7477071459       -3.8938131277       -1.8701711295
 H       -11.6571052389       -2.5346872044       -2.0369412400
 H       -13.1465404026       -2.2681223315       -1.2030106579
 Na       -8.9394260670        5.0535065764       -0.0561882092
