117

 C       -13.5545594470       -4.9557518234        0.9196492029
 C       -12.5993112089       -3.8856923951        1.2589819926
 O       -12.5963849617       -3.3650974347        2.3819011925
 C       -11.6929068938       -3.2963026532        0.1615555348
 C       -11.1650766486       -1.9755444121        0.5507132070
 O       -11.3271696717       -0.9024021438       -0.0160464250
 C       -10.2518809977       -1.9430641097        1.7558404095
 C       -10.3893847950       -0.5950507679        2.5377715949
 C        -9.6207796884        0.4757461863        1.9242986813
 O        -8.7734166352        0.2000161836        1.0811049735
 C        -9.7858589359        2.0433150127        2.2857666373
 C       -10.7812486988        2.5693965415        1.2477913263
 O       -10.5818574683        3.2766973588        0.2674169712
 C       -12.2569693368        2.0628071796        1.4334943093
 C       -13.2068831138        2.9184396519        0.6111502054
 C       -13.3104359951        4.3707335128        1.1540549220
 O       -13.4823637334        4.5273931934        2.3512623217
 C       -13.1632828686        5.7191366423        0.2296160461
 C       -12.0157702389        6.5744503025        0.9815111313
 O       -10.9217603933        6.4557078717        0.4674526042
 C       -12.4114633796        7.3685818264        2.2664102793
 C       -11.2636987588        7.2905955645        3.3065621713
 C       -10.1181827885        8.3468789725        3.1866962319
 O       -10.3337909177        9.5324850469        3.2386957552
 C        -8.6305692419        7.8478768634        3.1895242818
 C        -8.3482457534        7.2976840996        1.7726589633
 O        -8.2568319699        6.1140905032        1.6280276654
 C        -8.5001113468        8.2863752723        0.6310566520
 C        -7.3570304426        7.9257459309       -0.5056383831
 C        -7.9138239108        8.4382998753       -1.8461993168
 O        -8.8506779595        9.1835684525       -1.8845176924
 C        -7.2680363727        7.7020599821       -3.1157023183
 C        -8.0936325037        6.4037474749       -3.2903587524
 O        -8.2744755617        5.7707776478       -2.2517374361
 C        -8.6517322654        5.9462975501       -4.5872652618
 C        -9.0799651064        4.4869653808       -4.5835122786
 C        -7.8684691303        3.5353156028       -4.4468672075
 O        -6.7421563215        3.9119401547       -4.7956704646
 C        -8.1795424747        2.1438155971       -3.9586081202
 C        -8.6184085407        2.2487178366       -2.4638146438
 O        -8.1931762439        3.1762749455       -1.7533736111
 C        -9.5930682394        1.2833140729       -1.8028017849
 C        -9.4929491138        1.6607764630       -4.7257775906
 C        -6.9861626246        1.2284650475       -3.9757785726
 C        -7.4035446898        8.6701704788       -4.3316498349
 C        -5.7022453347        7.5003494458       -2.9578828880
 C        -7.5584453413        9.0382848971        3.5247809375
 C        -8.3982795527        6.7000408940        4.2664347366
 C       -12.7500222492        5.3051569943       -1.1718498427
 C       -14.4826298632        6.4791681942        0.0926324284
 C       -10.1797213444        2.3487997266        3.7170565365
 C        -8.4056304136        2.7214858108        2.0750460570
 C       -10.5067768235       -4.1879029855       -0.1908042762
 C       -12.5383433034       -3.0366330655       -1.0705767896
 H       -13.2904122548       -5.5965345873        0.0472792465
 H       -14.4942045264       -4.5729680984        0.6253036999
 H       -13.8951067177       -5.5984040243        1.7328211480
 H        -9.1867032286       -2.0580798431        1.4139124305
 H       -10.5344136966       -2.8007857449        2.4362022430
 H       -10.0730149002       -0.7413346160        3.5921379706
 H       -11.4720043997       -0.4972979212        2.5505958169
 H       -12.5882226746        1.9204975495        2.4697450656
 H       -12.2752422632        1.0289267832        0.9963602792
 H       -14.2392965323        2.5779913057        0.7296937534
 H       -12.9783462014        2.9027795568       -0.4521613061
 H       -13.2180105841        6.7488859640        2.6757669074
 H       -12.7269391368        8.3473773772        1.9751144934
 H       -10.9086416774        6.2435033492        3.3446848527
 H       -11.6816329328        7.4727545051        4.2855669895
 H        -8.5189971633        9.3158678114        0.9925789161
 H        -9.4577272669        8.0935630434        0.2365659404
 H        -7.1724839586        6.8506488894       -0.5205073553
 H        -6.5049404447        8.4600847346       -0.2564779355
 H        -7.8524640969        5.9780615151       -5.3436105939
 H        -9.4345260236        6.5733250730       -4.9923897907
 H        -9.6583437099        4.3074981046       -5.5180396533
 H        -9.8858305144        4.2733705507       -3.8408111349
 H       -10.2922565490        1.8607919270       -1.2711861337
 H        -9.0111540137        0.6044908573       -1.2020702459
 H       -10.0602167270        0.6595747754       -2.5300654538
 H       -10.4001741985        2.0638957282       -4.3745830165
 H        -9.5372368526        0.5616067360       -4.5605312182
 H        -9.3570714255        1.9109783232       -5.7381812064
 H        -7.0550677838        0.6158566111       -4.9526719485
 H        -6.9946826028        0.5089164442       -3.1252488995
 H        -6.0382075101        1.7141113463       -3.8772182420
 H        -7.0611443850        8.4067925956       -5.3180930164
 H        -7.0010345886        9.5883420075       -4.0150505838
 H        -8.4999409123        9.0031055724       -4.5640726911
 H        -5.5240765128        6.8190532988       -2.0869762825
 H        -5.3188662856        8.4723333790       -2.8242294184
 H        -5.3083579556        7.0878917145       -3.8400565849
 H        -7.6872999109        9.2766780809        4.5848439586
 H        -7.7657094337        9.9992373498        2.9608241219
 H        -6.4794339383        8.6888744617        3.3786717156
 H        -8.6207759610        5.6967587147        3.9518754112
 H        -8.9008715818        6.8341611932        5.2163660790
 H        -7.2691097654        6.7011953827        4.4180087050
 H       -12.6742723402        6.2551647059       -1.7831022079
 H       -13.4642903566        4.6950888011       -1.7089307628
 H       -11.8131704380        4.7189443635       -1.2982940735
 H       -14.4506212135        7.4067490142       -0.4186803872
 H       -15.0225310600        6.5776127347        1.0688947492
 H       -15.0180647550        5.9588226649       -0.6828022857
 H        -9.5198826814        1.8857937277        4.4442599028
 H       -11.1905699446        2.0542861722        3.9603618101
 H       -10.2347598336        3.4037092855        3.9528901105
 H        -7.9047149751        2.5280185110        1.1107893782
 H        -7.6284112133        2.3016156377        2.7157750451
 H        -8.3158730796        3.7853242184        2.3404874809
 H       -10.8863753388       -5.2102876222       -0.2779253274
 H        -9.8325669318       -4.1725699910        0.6927922031
 H        -9.9680052074       -3.9624000832       -1.0966004727
 H       -13.0817434879       -3.9329897358       -1.3872376372
 H       -11.8567269405       -2.8888222308       -1.9166898352
 H       -13.2452132971       -2.1674046027       -0.9710520863
 Na       -9.2810542592        4.8960197572       -0.5661445720
