117

 C        -1.4886976007        3.0733589168        7.3277012213
 C        -2.5259694062        4.1448717353        7.1631497544
 O        -3.3947553485        4.3888177575        8.0483421593
 C        -2.6912965752        5.0674152311        5.8507789506
 C        -3.9928077262        4.4557683471        5.2124690253
 O        -3.9821540253        3.8433801049        4.1615659871
 C        -5.3054763961        4.7058277190        5.9359407348
 C        -6.4067948906        3.8020887171        5.2340417317
 C        -7.7226999322        4.4960008982        4.6858265318
 O        -7.7983816970        5.7151564315        4.5664129918
 C        -8.9284424552        3.6747619320        4.3285137270
 C       -10.1570078964        4.5908018380        3.9507825765
 O       -11.2939092767        4.3387113301        4.3920887081
 C        -9.9207249556        5.8800385406        3.1560181392
 C       -11.1625040923        6.2191198887        2.3541068935
 C       -11.3406867316        5.5825474075        0.9755114789
 O       -10.6527517028        4.6693994251        0.5161823004
 C       -12.4912536380        6.1931506478        0.0900894136
 C       -13.3049229939        4.9237452314       -0.4763540407
 O       -13.2960397936        4.4693869741       -1.6310872284
 C       -14.1410297565        4.0870203996        0.5737117902
 C       -14.5751757418        2.6848262403        0.3018134909
 C       -13.5372474585        1.7128646791       -0.1838460289
 O       -12.4002599638        1.7463038844        0.2622772455
 C       -13.9761714230        0.6722900819       -1.3105393388
 C       -13.1892786322        0.8371915916       -2.6173951155
 O       -12.1219113933        1.3817060499       -2.7185383250
 C       -13.8272434815        0.1890545529       -3.8680276887
 C       -12.9782997372        0.2678811522       -5.1136746879
 C       -12.8001855625        1.7659038157       -5.5437534364
 O       -13.4892527232        2.6742629401       -5.1626804249
 C       -11.6201341194        2.1722387204       -6.7552948596
 C       -10.4412514774        2.9363648955       -6.0355837365
 O        -9.4112915035        2.3622403922       -5.7770337824
 C       -10.5126979412        4.4991179748       -6.0082369880
 C        -9.4719066950        5.1937488566       -5.0678726798
 C        -9.6995854831        4.7611761191       -3.6555029696
 O       -10.7747215798        4.4963843480       -3.2044262560
 C        -8.3415617533        4.4506207413       -2.7085852897
 C        -8.2072453750        2.8796649722       -2.4769495750
 O        -9.2152917528        2.2873854005       -2.1321637284
 C        -6.9905869699        2.1832460550       -3.0208827573
 C        -7.1287386239        5.0174436064       -3.3929774984
 C        -8.5434917429        5.2562772332       -1.4051512154
 C       -11.1157164137        0.8491506069       -7.4908526420
 C       -12.4073666918        3.0058481627       -7.7640532021
 C       -13.6001584839       -0.6172565109       -0.6309380296
 C       -15.5344722775        0.6723713191       -1.5845033351
 C       -13.5703806912        7.1229776897        0.7842914752
 C       -11.7321379484        7.0844211620       -1.0713199557
 C        -8.5468508431        3.1087547666        2.9389549860
 C        -9.2735740042        2.6449780328        5.3981785184
 C        -3.0689249561        6.6011534783        6.2484070307
 C        -1.5060016435        5.0588665205        4.8621123601
 H        -1.5302730530        2.4354272558        6.4864436187
 H        -1.6382262025        2.3845849468        8.1601876298
 H        -0.4329196536        3.4111539995        7.3790007046
 H        -5.5364281569        5.7507290843        5.6530435475
 H        -5.2406652256        4.7832246318        7.0630264279
 H        -6.7699776879        3.0239433975        5.8111977800
 H        -5.9529090639        3.4457458915        4.3802235615
 H        -9.0254675080        6.0442958718        2.5938939867
 H        -9.7453834111        6.6555569589        3.9360458784
 H       -11.0882886251        7.2891262348        2.1600731789
 H       -12.1251700395        6.0135873845        2.8420305044
 H       -14.9210000716        4.7025921712        0.8855435971
 H       -13.5122557781        4.1189163847        1.5227298861
 H       -15.3150381392        2.7895992688       -0.5191056213
 H       -15.0874064557        2.1724488717        1.0525096622
 H       -14.7784325908        0.7512553420       -3.9965012478
 H       -13.9213165693       -0.9398222535       -3.6707991231
 H       -13.4840314385       -0.3019216443       -5.9256428723
 H       -12.0125654492       -0.2645840453       -4.9013192938
 H       -11.4795521451        4.8577442931       -5.7788384775
 H       -10.2677931461        4.8537026082       -6.9796331719
 H        -9.4780104101        6.2613339990       -5.2716163423
 H        -8.4578433919        4.9012835808       -5.3596776242
 H        -6.5847052360        1.6363627913       -2.2120065203
 H        -6.1279613419        2.8713449987       -3.3291648734
 H        -7.3619352737        1.4678463200       -3.7186992958
 H        -7.3929310770        5.9980516375       -3.6942575633
 H        -6.8956616690        4.3679682794       -4.2872368409
 H        -6.2816792271        5.0920430866       -2.8074613366
 H        -9.2139310545        4.7789380444       -0.7193846796
 H        -9.0849515090        6.2435370580       -1.5884206796
 H        -7.5698672233        5.6256220123       -1.0070642250
 H       -11.8259967037        0.4958666670       -8.1705987119
 H       -10.8666347398        0.1373023948       -6.6938499181
 H       -10.1860261903        1.0908158852       -7.9836510507
 H       -12.6980300441        3.9564977386       -7.3205972123
 H       -13.2585170482        2.4514729255       -8.0255771125
 H       -11.9893016776        3.2360196894       -8.7430771543
 H       -14.2159955545       -0.5844452469        0.2190073798
 H       -12.5254957857       -0.6478970894       -0.3996949623
 H       -13.7733930206       -1.5278732198       -1.2041704889
 H       -15.9162921237        0.6897301894       -0.6270562800
 H       -15.8498717898       -0.1757070533       -2.1968610140
 H       -15.8260694284        1.6664122668       -2.0768084771
 H       -14.5478844322        6.8209436739        0.5386022601
 H       -13.4340636449        8.1797475198        0.4341576497
 H       -13.5746693346        7.0369817106        1.8372320460
 H       -10.9327953553        6.6536369401       -1.6503833555
 H       -11.3234733454        7.9530677757       -0.6086289099
 H       -12.4054596160        7.5015656942       -1.7932090737
 H        -7.7670092508        2.3604627036        2.9478387681
 H        -8.3117173349        3.9232398606        2.2539037526
 H        -9.3877562851        2.6592545672        2.4924888067
 H        -9.0185958727        3.0323340434        6.3593629920
 H        -8.6753187386        1.7718647790        5.2900332982
 H       -10.3294850326        2.5092990856        5.2223075692
 H        -3.8583147356        6.6347463760        6.9873299317
 H        -3.3644267891        7.2886716545        5.4396895202
 H        -2.3002450546        7.0232077203        6.7850067835
 H        -1.1620567945        4.0680660940        4.5976420799
 H        -0.6644877940        5.5416311363        5.3550184402
 H        -1.6353305742        5.6882317978        4.0463390750
 Na      -11.1210101951        3.2286168416       -1.1897495464
