117

 C       -13.3678318175       -5.3345413540        0.9277753822
 C       -12.7535641839       -4.0877133533        1.5261843138
 O       -12.8353905700       -3.8487581670        2.7096178510
 C       -11.8293327197       -3.1580500750        0.5226103742
 C       -11.5435046585       -1.8551479285        1.2534084884
 O       -12.2818150505       -0.8890750233        1.0991875050
 C       -10.3603486799       -1.8323745087        2.2396524769
 C       -10.2973110115       -0.4879099962        2.9866548101
 C        -9.7839624431        0.5974363066        1.9399278618
 O        -9.0539368839        0.2441305715        1.0381032793
 C        -9.8387685345        2.2051829390        2.2366912454
 C       -10.8810465750        2.8538696644        1.2464026109
 O       -10.6218183779        3.6091644694        0.3296653109
 C       -12.3797273029        2.4236710302        1.5792022415
 C       -13.3870624217        3.2002311865        0.7895715356
 C       -13.4899150002        4.7017718020        1.2305683029
 O       -13.8122306213        5.0323261610        2.3485346187
 C       -13.2436503886        5.8882697872        0.2678684088
 C       -12.0291425515        6.6217902725        1.0234552699
 O       -10.8383411502        6.4589624531        0.7975673777
 C       -12.4696197267        7.5269575389        2.1761315651
 C       -11.3710346162        7.6803001642        3.2839350977
 C        -9.9532364993        8.2751597391        2.7987737959
 O        -9.9188406565        9.3294189065        2.2613712008
 C        -8.6363021033        7.3848492024        3.0211422457
 C        -8.0118051405        7.1676808599        1.5593815859
 O        -7.6570212173        6.1062733774        1.1337916175
 C        -8.0063973731        8.4076812156        0.4976283387
 C        -7.2726265602        8.0800529419       -0.7385655015
 C        -7.8526711197        8.5613854649       -2.1201157767
 O        -8.6232706335        9.4794481542       -2.1607374840
 C        -7.2745787476        7.8475034283       -3.3334755374
 C        -8.0095308544        6.4750445518       -3.5368009343
 O        -8.4591775495        5.9370498719       -2.5168306117
 C        -7.7809258093        5.7569093058       -4.8169583674
 C        -8.4181074660        4.3064989805       -4.9768544735
 C        -7.5170208715        3.2487492513       -4.3279427059
 O        -6.3259283083        3.4594491310       -4.2574706665
 C        -8.1197456065        1.8842108907       -3.9256026841
 C        -9.0000184755        1.9883279531       -2.6938787055
 O        -8.8313467542        2.9004137796       -1.8551043767
 C        -9.9480026090        0.8464292537       -2.3007753051
 C        -8.7595981237        1.3234881249       -5.2342034197
 C        -7.0154998192        0.9780401742       -3.3960723250
 C        -7.3570353069        8.7509295963       -4.6638238873
 C        -5.7271269791        7.4847720126       -3.1227067669
 C        -7.7709371637        8.2840498419        3.9494337721
 C        -8.9776337234        6.0300865966        3.6380230850
 C       -12.8821928509        5.5149672327       -1.1741321745
 C       -14.4770455281        6.8149522401        0.1619658273
 C       -10.1827485271        2.5376776200        3.6698453895
 C        -8.4303172257        2.7908700002        1.9113758237
 C       -10.5277819950       -3.9383033648        0.1973687822
 C       -12.6164309790       -2.9040193656       -0.7862203058
 H       -12.7092075571       -6.0476884186        0.3812251423
 H       -14.1119317548       -5.1465294321        0.2230998205
 H       -13.7726107826       -6.0067621200        1.6696771450
 H        -9.4475900767       -2.1021017521        1.7873530911
 H       -10.5688305349       -2.6579894179        2.9393116382
 H        -9.5706330552       -0.4860728598        3.8556500434
 H       -11.2184593355       -0.3458167022        3.4362241325
 H       -12.5164656427        2.5681621703        2.6261475902
 H       -12.5537521159        1.3613418108        1.4224803464
 H       -14.3252715033        2.6340732453        0.8081709992
 H       -13.1667648864        3.1638506248       -0.2930442962
 H       -13.3428073136        7.0962803848        2.7096567491
 H       -12.7280672430        8.5459812436        1.8472042091
 H       -11.4220313589        6.6419188066        3.6852577201
 H       -11.7256085456        8.3954646073        4.0522270473
 H        -7.5355542403        9.3776824038        0.8751911750
 H        -9.0710748229        8.6301018917        0.2754771733
 H        -7.1075682146        6.9119993977       -0.7994924805
 H        -6.2932875579        8.5209820999       -0.6935933396
 H        -6.6922878164        5.5964585770       -4.9003132948
 H        -8.1003367889        6.3480316330       -5.6962294200
 H        -8.4549882545        4.1345006787       -6.0438428326
 H        -9.4473505642        4.2755662248       -4.5833886844
 H       -10.7373679251        0.9377862091       -3.0721541765
 H       -10.3736245940        1.0249847806       -1.2702109241
 H        -9.4150274606       -0.1251123912       -2.4677406271
 H        -9.8296110067        1.5329372851       -5.2747615654
 H        -8.5066400801        0.2206392689       -5.3290934977
 H        -8.2717049485        1.7151868754       -6.0887229512
 H        -6.1851507554        0.8788974133       -4.1058400152
 H        -7.4191907236       -0.0073800807       -3.2815949405
 H        -6.5258958178        1.2873407544       -2.5070188095
 H        -6.6891282117        8.5635040512       -5.4429659683
 H        -7.1700871673        9.7542942109       -4.5382595307
 H        -8.4027419710        8.7957930534       -5.1228264558
 H        -5.4900733669        6.7708018202       -2.2968786859
 H        -5.2800377271        8.4223349420       -2.8092028920
 H        -5.3429050320        7.1559456331       -4.0711041138
 H        -8.3413130444        8.5353674637        4.8131082871
 H        -7.4700893048        9.1954377535        3.4149121532
 H        -6.8559821594        7.7563951660        4.2775652305
 H        -9.6762401161        5.5031072948        2.9705053007
 H        -9.3958418268        6.0892732275        4.6257880435
 H        -8.0823885589        5.3839550292        3.8670609441
 H       -12.9888738062        6.3680152873       -1.9103665903
 H       -13.6473012204        4.8566164731       -1.5631508549
 H       -11.9627728708        4.9378455672       -1.3528751198
 H       -14.0089987226        7.7139101682       -0.1042760329
 H       -15.1411498725        7.0265544027        1.0774157691
 H       -15.1716827955        6.4579419947       -0.5512958727
 H        -9.5355146235        1.9279173559        4.2939113206
 H       -11.1696954184        2.1660958218        3.8907119256
 H        -9.9934973952        3.5901393570        3.8984046348
 H        -7.9319010703        2.4860428119        0.9989759632
 H        -7.7833121907        2.6486906819        2.7561227386
 H        -8.4967772419        3.8558685121        1.7235002378
 H       -10.7529828453       -4.9162198039       -0.2379479611
 H        -9.8595449030       -4.0931509223        1.0563624743
 H        -9.9614598679       -3.3754883369       -0.5106649693
 H       -12.9571800874       -3.8880918898       -1.1507319742
 H       -11.9204549646       -2.4781343850       -1.5553361610
 H       -13.5153977688       -2.2248480474       -0.7909453991
 Na       -9.1049822859        5.1289402091       -0.3158887341
