117

 C       -13.3376059435       -5.3427647004        0.9320949868
 C       -12.7045797572       -4.1177450966        1.5111025534
 O       -12.7902626649       -3.8186569223        2.6655982672
 C       -11.8640616386       -3.2494879509        0.5551070597
 C       -11.6992218887       -1.8786837739        1.3951590245
 O       -12.4233047745       -0.9022326380        1.3109750395
 C       -10.4983964511       -1.8167603677        2.3612103210
 C       -10.2992628452       -0.4482218610        3.0092918223
 C        -9.6747524796        0.6418635920        1.9889576673
 O        -9.2952706858        0.1848418306        0.9168364833
 C        -9.7749534118        2.1836910039        2.3488049576
 C       -10.8903372594        2.8007540679        1.3814989533
 O       -10.6672769534        3.5815626630        0.4743699469
 C       -12.3491610833        2.4425718469        1.5845641595
 C       -13.2886436062        3.2671939790        0.7132152529
 C       -13.5042553600        4.7358722506        1.2258310112
 O       -13.9076194662        4.8885670006        2.3482031889
 C       -13.1930981407        6.0057317498        0.2382238927
 C       -12.0370530075        6.6464899325        1.0055831047
 O       -10.8581587295        6.4607127043        0.7280577373
 C       -12.3869704414        7.5871795152        2.1205798741
 C       -11.3274666416        7.8139505029        3.2579888477
 C        -9.9934307031        8.1763677373        2.5935140488
 O        -9.9779694892        9.3017980270        2.0994289880
 C        -8.6649124936        7.4109473763        2.8713922713
 C        -7.9994136070        7.2310685802        1.5017036670
 O        -7.6579923968        6.1151656819        1.1783669802
 C        -7.8988340411        8.4595144507        0.5734909527
 C        -7.1557082654        8.1242054932       -0.6984097121
 C        -7.8091186992        8.6145463317       -2.0240319142
 O        -8.6383881285        9.4881059134       -2.1635572233
 C        -7.2524217641        7.8279104905       -3.3211251668
 C        -7.9849293986        6.3899613843       -3.4833238706
 O        -8.6548998545        5.9241649629       -2.5514965646
 C        -7.7020243352        5.6935903271       -4.7761492898
 C        -8.3519806369        4.3012840217       -4.9426916856
 C        -7.3866954687        3.2764568347       -4.2684439879
 O        -6.2051793817        3.4149419657       -4.1230878107
 C        -8.0420655605        1.7907026015       -3.9312647890
 C        -9.0528881609        1.9768873756       -2.6882591754
 O        -8.9548462607        2.9369400170       -1.9944690530
 C       -10.0554574876        0.8206184636       -2.4424154551
 C        -8.6917867133        1.3207854820       -5.2585186757
 C        -6.8535904105        0.9127692231       -3.4443135184
 C        -7.3525619841        8.6955067699       -4.6008895786
 C        -5.7690305229        7.5182357959       -3.2360125647
 C        -7.7536273104        8.1878132316        3.8458954449
 C        -8.8317589632        6.0514299728        3.4640813571
 C       -12.9029757548        5.5432574182       -1.2068460975
 C       -14.4253942819        6.8995148637        0.2669682756
 C       -10.1860064391        2.5456751354        3.7637910780
 C        -8.4340472702        2.8387794556        1.9459326497
 C       -10.5591009131       -3.9765442735        0.2546387939
 C       -12.6147692391       -2.8661160861       -0.7596043955
 H       -12.6973153511       -5.9094617289        0.2578956200
 H       -14.1796054778       -5.1336312295        0.2553246762
 H       -13.6139381516       -6.1261613180        1.6134775573
 H        -9.6058928842       -2.0377307466        1.8208414175
 H       -10.5236380181       -2.6131172269        3.0715844818
 H        -9.6508552806       -0.5801028563        3.8743555256
 H       -11.2663495455       -0.1267877292        3.5007783566
 H       -12.6287071605        2.4753945901        2.6483325647
 H       -12.4722141584        1.3859987313        1.2916393580
 H       -14.2485646008        2.7015880733        0.8149299555
 H       -13.1357329820        3.1905424939       -0.3517294753
 H       -13.3686677110        7.3555895414        2.5800375276
 H       -12.4636565073        8.5790051494        1.6442609567
 H       -11.3680048128        6.8517207476        3.7801165886
 H       -11.5672662064        8.6679284034        3.8866005375
 H        -7.3460909089        9.2682839482        1.0968720840
 H        -8.9856446996        8.8590374894        0.3909861448
 H        -7.1073700524        7.0192390809       -0.8392640311
 H        -6.1050653048        8.4804032232       -0.6795075845
 H        -6.6018678437        5.4851174947       -4.8048118366
 H        -7.9315145077        6.2813678760       -5.6511025553
 H        -8.3977625100        4.1178251534       -5.9908042911
 H        -9.3190652274        4.2576853792       -4.5205618593
 H       -10.9546957831        0.8039081874       -3.1324682690
 H       -10.3438770676        0.8875021310       -1.3670400923
 H        -9.4352679755       -0.0268499392       -2.6763680731
 H        -9.6703581051        1.7564163719       -5.3657595457
 H        -8.6806528523        0.2467515993       -5.3953735702
 H        -8.0016377567        1.6517536251       -6.1193186931
 H        -6.2202634750        0.5789882609       -4.2037148712
 H        -7.2220247418        0.0443993690       -3.0470106489
 H        -6.1387217278        1.3998013328       -2.7368944489
 H        -6.5984668774        8.6080280744       -5.3601227756
 H        -7.2281985615        9.7910278046       -4.4183363885
 H        -8.2846656308        8.6729365213       -5.0975665541
 H        -5.6877285634        6.9753270547       -2.3489217034
 H        -5.1154718716        8.4649820566       -3.0546887716
 H        -5.3882415585        6.8716343580       -4.0856609723
 H        -8.3064301917        8.5006368757        4.6622799592
 H        -7.3226468627        9.0241702912        3.3640875026
 H        -6.9535537617        7.5535155437        4.1902148499
 H        -9.5814231012        5.4931810358        2.9574351563
 H        -8.9907654161        5.9832603778        4.5423131922
 H        -7.8737250456        5.5087284102        3.3633962173
 H       -12.8240689927        6.3192854429       -1.9127887351
 H       -13.7653688127        4.9365463770       -1.5827063177
 H       -12.0483151000        4.9266477569       -1.2949557725
 H       -14.1943163757        7.9059785554       -0.0475022807
 H       -14.9584105412        6.9775686722        1.2426977837
 H       -15.1750706024        6.3527166464       -0.2751493149
 H        -9.4395183552        2.1266815508        4.5470274383
 H       -11.1260222418        2.0892387548        3.9898418668
 H       -10.1792436117        3.6286403837        3.7799058171
 H        -8.0704340547        2.4293660772        0.9838128456
 H        -7.7407566290        2.5889166137        2.7118954979
 H        -8.3829131008        3.8714305291        1.7294676885
 H       -10.8700139730       -4.9148191813       -0.1341864242
 H        -9.9737679094       -4.2270535968        1.1401391907
 H        -9.8968993304       -3.4598086108       -0.4407527948
 H       -13.0545550191       -3.6978807761       -1.3173074947
 H       -11.9964747297       -2.2692683455       -1.3788990399
 H       -13.4752689926       -2.2159405434       -0.5106289935
 Na       -9.1927159907        5.1634133263       -0.3519471303
