117

 C       -13.3701822911       -5.3248892188        0.9453115258
 C       -12.7791947204       -4.1192301507        1.5952476729
 O       -12.8467086700       -4.0223825484        2.8170855435
 C       -11.9475248781       -3.1599259137        0.7004014075
 C       -11.7670892185       -1.8816181482        1.5707998807
 O       -12.5942885860       -0.9922522098        1.5524512639
 C       -10.6422651693       -1.7924327908        2.5440583455
 C       -10.3853515519       -0.3785378257        3.0564659880
 C        -9.9791704383        0.5842144508        1.9845862510
 O        -9.6450160590        0.3579650469        0.8382386196
 C        -9.8542351289        2.1442838832        2.4123245441
 C       -10.9323286007        2.8306335114        1.5541227504
 O       -10.6273681146        3.5808281525        0.6474576340
 C       -12.4072935898        2.4048916945        1.6251299889
 C       -13.2477976737        3.2342065255        0.6079001382
 C       -13.5053917333        4.6416996356        1.1542853995
 O       -13.9828991266        4.7820514294        2.2617751732
 C       -13.1596106707        5.9707017281        0.3290543961
 C       -12.0498690426        6.7115538766        1.1162662818
 O       -10.9319772996        6.6163506873        0.6489851422
 C       -12.4111756332        7.7318563902        2.1140837689
 C       -11.2614747498        7.7260429077        3.1406461005
 C        -9.9956999009        8.2342117046        2.5002453067
 O       -10.0201494266        9.2698444601        1.9205484994
 C        -8.6070638036        7.4946138278        2.7304673402
 C        -7.9288685691        7.3151087638        1.3062154574
 O        -7.7238597121        6.1877148598        0.8202883227
 C        -7.6229045136        8.5997045463        0.5761998798
 C        -6.7440774980        8.1667921954       -0.6892458575
 C        -7.5616685675        8.4396434273       -1.9930797466
 O        -8.4744425896        9.2300841409       -1.9924816325
 C        -7.1651280968        7.7202256262       -3.2836517348
 C        -7.9246309561        6.4460059348       -3.5081580739
 O        -8.8050705112        6.1206578358       -2.7292354240
 C        -7.6763637555        5.6827626623       -4.8139450401
 C        -8.2623965985        4.2278933061       -4.7363134403
 C        -7.1593765359        3.2034607883       -4.1244788371
 O        -6.0076957224        3.4514249623       -3.8140871018
 C        -7.8569741184        1.7561759709       -3.8734330616
 C        -9.0247568385        1.9883081956       -2.8359778698
 O        -9.1907902303        3.1019171210       -2.2399717040
 C       -10.0122224266        0.8327582104       -2.6872337865
 C        -8.5987808470        1.2010554732       -5.1503995492
 C        -6.7503216913        0.7103068134       -3.4681826877
 C        -7.6842089985        8.6441609418       -4.4947719212
 C        -5.5851196867        7.5556377435       -3.2599197436
 C        -7.6745906749        8.3447540800        3.6202126356
 C        -8.9256672054        6.1815193717        3.3774516824
 C       -12.7849896843        5.7586490198       -1.0885583307
 C       -14.5156764821        6.8006149331        0.3007792471
 C       -10.0069518939        2.3749296722        3.9627502113
 C        -8.4799115000        2.5920486385        1.9723232533
 C       -10.4888682003       -3.8140825684        0.2899214984
 C       -12.6488452809       -2.7493810047       -0.6317457635
 H       -12.8516698301       -5.7340730724        0.0589700172
 H       -14.3363209128       -5.1368746275        0.5326237972
 H       -13.4298104858       -6.2165075406        1.5819356442
 H        -9.6653119662       -2.2427745392        2.2013592232
 H       -10.9093487232       -2.5451097928        3.3470016487
 H        -9.6324369363       -0.3605071783        3.8829766248
 H       -11.2475611812        0.0538172860        3.5249882928
 H       -12.7378532888        2.5875754125        2.6601869890
 H       -12.3848870191        1.3009295212        1.4699449395
 H       -14.2228553716        2.8042606464        0.5090623840
 H       -12.8642408715        3.2244209705       -0.4275026956
 H       -13.3913373468        7.6617395967        2.5535496193
 H       -12.3122985977        8.7447533519        1.7281804844
 H       -11.3244935298        6.7955412826        3.6725461984
 H       -11.4603504696        8.5935450376        3.7768326548
 H        -7.1082198480        9.2808698283        1.2284519297
 H        -8.4852843025        9.0621953335        0.2825458587
 H        -6.3740580761        7.1586328833       -0.6787541145
 H        -5.8746286696        8.7893206476       -0.8134283346
 H        -6.6129490600        5.5766170573       -4.9418025214
 H        -8.0408150499        6.1655531474       -5.7394937283
 H        -8.5970422470        3.9381666715       -5.7530119738
 H        -9.1297896439        4.3459222565       -4.0353165038
 H       -10.8055044054        1.1151067553       -3.2799514962
 H       -10.3324590141        0.8841383518       -1.6876970266
 H        -9.6304959604       -0.1137556409       -3.0380470077
 H        -9.2606217838        1.9448456725       -5.6149464493
 H        -9.2676074894        0.3730149092       -4.8235509165
 H        -7.9867656542        0.7600917515       -5.8338159131
 H        -6.2704874030        0.2816858914       -4.4059228091
 H        -7.0824910491       -0.2575298135       -2.9823618019
 H        -5.8987695506        1.0971075634       -2.9887303498
 H        -7.4531474518        8.3019168492       -5.5036038365
 H        -7.3544965882        9.6286812982       -4.5920550478
 H        -8.8355933499        8.7038712228       -4.4904912628
 H        -5.2196809401        6.7414115448       -2.5308221837
 H        -5.1703720632        8.4815724971       -3.0233920081
 H        -5.2373137400        7.3394829231       -4.2427235684
 H        -7.9676182461        8.3266391909        4.6864183118
 H        -7.6459772141        9.3951914167        3.2925323748
 H        -6.6707336371        7.9380819444        3.5309402024
 H        -9.5781878132        5.5839261109        2.7195723022
 H        -9.4150120053        6.2834933974        4.3172691697
 H        -8.0982364156        5.5204909468        3.5450771086
 H       -12.4748380140        6.7069485546       -1.6124153515
 H       -13.5321417547        5.2746510937       -1.6273209508
 H       -11.8401923553        5.1956628628       -1.1875691953
 H       -14.3520304217        7.8173545183       -0.0368810215
 H       -15.0626164552        6.9329436770        1.2728872563
 H       -15.1686599571        6.1661256061       -0.2795659917
 H        -9.1284092624        2.0502491396        4.4286076250
 H       -10.7816804424        1.6616190956        4.3210399465
 H       -10.2679099641        3.4330921376        4.2000791460
 H        -8.3880668346        2.5546868795        0.9072709137
 H        -7.6898535096        2.0152183768        2.4901116084
 H        -8.3293604767        3.6866956717        2.1176957659
 H       -10.5295090138       -4.6144489779       -0.4722843578
 H       -10.1222071521       -4.3706515442        1.1555459294
 H        -9.7653694929       -3.0394939964        0.1100266123
 H       -12.8308580241       -3.6106900141       -1.1941553885
 H       -12.1314985823       -2.0108125838       -1.2299985673
 H       -13.6282442600       -2.4054299314       -0.4558085021
 Na       -9.3008849036        5.0464387993       -0.7135814692
