117

 C       -13.4338773837       -5.3438096750        0.8571733227
 C       -12.7104594017       -4.2871082099        1.6805911192
 O       -12.8356204027       -4.0531734314        2.8390649437
 C       -11.9706759664       -3.1251054520        0.8037412629
 C       -11.8512848591       -1.8811810654        1.6816343130
 O       -12.6294080901       -0.9378629970        1.5816871110
 C       -10.6410397596       -1.9013323106        2.5943442098
 C       -10.4731258610       -0.4388495693        3.1350143389
 C       -10.0597460593        0.5945764109        2.0351767668
 O        -9.8953635586        0.2613935836        0.8606035921
 C        -9.8376660054        2.1403107892        2.4243746340
 C       -10.9658368380        2.9308913631        1.5303136137
 O       -10.6022226721        3.7034419952        0.6894413598
 C       -12.4246300598        2.4974158337        1.6300287571
 C       -13.2333688916        3.2070227014        0.6390844572
 C       -13.5262066347        4.6436894678        1.1354836880
 O       -13.9791951116        4.7328675889        2.2641195293
 C       -13.2285174283        5.9195552628        0.2200194771
 C       -12.0924323840        6.8174801605        1.0029218965
 O       -10.9233121640        6.6650635843        0.7238720843
 C       -12.4628400495        7.7425376809        2.1662996088
 C       -11.2226976380        7.8183249079        3.2358676859
 C        -9.9668266127        8.3141342665        2.4385310057
 O        -9.9735732960        9.3670351763        1.8347653369
 C        -8.5723939306        7.4901510143        2.6451373032
 C        -7.9400613940        7.2719013655        1.2465630396
 O        -7.9720551532        6.2048254780        0.7050969526
 C        -7.3687127774        8.5682128672        0.5540964505
 C        -6.5160423773        8.2991041217       -0.6476617729
 C        -7.4390278149        8.4533678498       -1.9446562529
 O        -8.4794343280        9.0663304975       -1.8491285538
 C        -7.0876210782        7.7740554900       -3.3835886247
 C        -7.8739545162        6.4275068944       -3.5266400044
 O        -8.8296779948        6.1862578689       -2.7714802707
 C        -7.5989729452        5.5995170485       -4.7647631514
 C        -8.0828189878        4.1370649870       -4.7311206653
 C        -7.2182982610        3.1374868775       -4.0811214137
 O        -6.1269155325        3.4340987982       -3.7289737901
 C        -7.8369889037        1.7463186008       -3.8732855067
 C        -9.0180742266        1.9356121313       -2.8463188491
 O        -9.1373063893        3.0506849485       -2.3567819528
 C        -9.9950251912        0.8327913732       -2.5456156288
 C        -8.4168945602        1.2580544908       -5.2276970254
 C        -6.8450034875        0.7348525688       -3.3443757544
 C        -7.6269755930        8.7060075955       -4.4253867619
 C        -5.5788558205        7.5979631416       -3.5417671788
 C        -7.7125216909        8.4230898092        3.5100016772
 C        -8.8111476581        6.1834761470        3.3583370246
 C       -12.7417770782        5.7533285817       -1.1866164695
 C       -14.5964902300        6.6509769793        0.2755608272
 C        -9.9897359261        2.3504674081        4.0050900502
 C        -8.4597876152        2.5071194216        1.9892507491
 C       -10.5968428221       -3.6514054477        0.3857517859
 C       -12.6710104252       -2.7616693539       -0.4925720060
 H       -12.9602983920       -5.6358968376       -0.1030145377
 H       -14.3861136679       -5.0015422988        0.5582835171
 H       -13.5526616877       -6.3050676530        1.3265841447
 H        -9.7270437913       -2.3226903892        2.1964788996
 H       -10.8346923631       -2.6516188638        3.4345998932
 H        -9.7229360734       -0.3983661714        3.9719559537
 H       -11.3671414842       -0.1396139075        3.5796618302
 H       -12.7277250666        2.6520457992        2.6436024831
 H       -12.3505870398        1.4274701544        1.4489277512
 H       -14.2223390335        2.7201368570        0.5422808065
 H       -12.7673614721        3.1145482925       -0.3425482855
 H       -13.3679310694        7.3884252462        2.6924243090
 H       -12.6988973733        8.7726060651        1.9168897289
 H       -11.1992938278        6.7638082303        3.5663881889
 H       -11.4631286330        8.5107906918        4.0503542313
 H        -6.7277012443        9.1228640087        1.2371045084
 H        -8.0916840786        9.2615397143        0.2058783632
 H        -5.9433150018        7.3038452408       -0.7166159363
 H        -5.7824078458        9.0404933682       -0.7283244327
 H        -6.5567388605        5.6733238652       -5.1032138528
 H        -8.2093558407        6.0472563604       -5.5762648160
 H        -8.1819050837        3.8688549280       -5.8056493397
 H        -9.0979311456        4.2498734336       -4.2699339944
 H       -10.7448979093        1.0076264171       -3.3081300887
 H       -10.4271382998        0.9711939700       -1.5457471823
 H        -9.5500419009       -0.0984555129       -2.7552651310
 H        -9.1230145447        1.9473678398       -5.6066206434
 H        -8.9577408485        0.2996464977       -5.1532698841
 H        -7.6152523936        1.1112498655       -5.9689071957
 H        -6.1104399715        0.3011186838       -4.0642009249
 H        -7.3393091434       -0.1424607122       -2.9956587083
 H        -6.1295721146        1.1316387282       -2.5435826000
 H        -7.7273137943        8.2912041439       -5.4041239429
 H        -7.1638737426        9.6415640050       -4.6560803737
 H        -8.6814448831        8.9317788646       -4.1736680878
 H        -5.2133970119        6.7357884974       -3.1529763204
 H        -5.0658490309        8.5025250773       -3.1744234245
 H        -5.3433210602        7.6603188706       -4.5868075415
 H        -7.8055302618        8.2161560623        4.5702424401
 H        -7.9851779298        9.5087706653        3.3291125098
 H        -6.5954214453        8.2922844536        3.2209997204
 H        -9.3762165388        5.4544669843        2.8075417765
 H        -9.3248842807        6.3302416655        4.2922098722
 H        -7.8521998353        5.6019524281        3.5280686505
 H       -12.4270861328        6.6844647157       -1.7210742603
 H       -13.4820464919        5.1848090630       -1.8018340876
 H       -11.7765629253        5.2245584045       -1.2066690014
 H       -14.3254644335        7.6407638540        0.0898703953
 H       -15.0903623639        6.7784173753        1.3153814329
 H       -15.3110402970        6.2402977644       -0.4052468628
 H        -9.2252725026        1.6918826524        4.4886495063
 H       -10.9326601010        2.0299251588        4.3545561392
 H        -9.8560543297        3.3959890284        4.1984472037
 H        -8.5044338732        2.5767102092        0.8646873935
 H        -7.6461760431        1.8760414979        2.3283038599
 H        -8.2592530054        3.5526199720        2.1926105253
 H       -10.6618565143       -4.3787106208       -0.4187241069
 H       -10.1350283032       -4.2584779626        1.2070427943
 H        -9.9393611421       -2.8312232042        0.1683892855
 H       -12.8868554615       -3.6224920770       -1.1292148372
 H       -12.2089181319       -1.9855511161       -1.1017803222
 H       -13.7061252638       -2.4279562375       -0.2136526587
 Na       -9.3663180260        4.9865579731       -0.8450368747
