117

 C       -13.4592187543       -5.3302675583        0.8690728478
 C       -12.8250259526       -4.2209820796        1.6176296951
 O       -12.7943686028       -4.2684073233        2.8387754624
 C       -12.0024594718       -3.1252184093        0.8213953176
 C       -11.8409293037       -1.8521509289        1.7259820716
 O       -12.6378981650       -0.9363263728        1.6138451492
 C       -10.6841859683       -1.7752890147        2.7527708280
 C       -10.4672474111       -0.3335178524        3.2802373929
 C       -10.1304881653        0.5608824920        2.0957487827
 O       -10.1420237550        0.1534722880        0.9695348894
 C        -9.8366527220        2.0630584589        2.3521343536
 C       -10.8930836987        2.8603744161        1.5583311426
 O       -10.5492719342        3.7848221381        0.8476264263
 C       -12.3976306472        2.4747742644        1.6463358597
 C       -13.2456572862        3.1841548042        0.5990722331
 C       -13.5058864984        4.6728037232        1.1026902050
 O       -13.9272667500        4.8241649499        2.2284937193
 C       -13.2337486974        6.0139822514        0.2310383297
 C       -12.1361957892        6.7695849229        1.0024186282
 O       -10.9352452936        6.6498678621        0.7009882405
 C       -12.4903362067        7.6342198734        2.1986712293
 C       -11.2656843205        7.9414907539        3.1282807894
 C        -9.9976548178        8.3531405420        2.4305379166
 O        -9.9255880339        9.4097542922        1.7684559900
 C        -8.6246120311        7.5628569664        2.6293180819
 C        -8.0174420450        7.3086673585        1.1525268860
 O        -8.1790518517        6.2629225360        0.5515529919
 C        -7.0886997882        8.4240105396        0.5770777654
 C        -6.4250345751        8.3741576488       -0.7674117093
 C        -7.3839067210        8.3911051569       -1.9121628629
 O        -8.4466488958        8.9088705354       -1.7412233806
 C        -7.0374996411        7.8682913661       -3.4192723030
 C        -7.8475657104        6.4443960699       -3.4912910675
 O        -8.8051539095        6.1784655598       -2.7948894678
 C        -7.5168131370        5.6227257268       -4.7745394824
 C        -8.0728421406        4.1896306071       -4.9000697594
 C        -7.2190046470        3.1826066261       -4.0545213323
 O        -6.1051329157        3.3680514021       -3.5766750256
 C        -7.8648058088        1.7032471838       -3.8788324118
 C        -9.0517404859        1.9380593582       -2.8553057792
 O        -9.1145771163        2.9875548090       -2.3150819304
 C        -9.9951412637        0.7976933562       -2.4081694110
 C        -8.2768722542        1.1934530520       -5.3102571641
 C        -6.8973928824        0.7442931085       -3.1860794828
 C        -7.6200123716        8.8626949883       -4.3855193486
 C        -5.5115155979        7.6263184050       -3.7830877755
 C        -7.6975036128        8.5383105523        3.4855814408
 C        -8.5975122973        6.1217362272        3.3050670551
 C       -12.7711499688        5.6477699458       -1.1854691258
 C       -14.6846382389        6.6743075898        0.2223592023
 C       -10.0654653154        2.3726864771        3.8918794800
 C        -8.3920855210        2.4456582896        1.9735475111
 C       -10.6026897081       -3.6620051173        0.4202858707
 C       -12.8688283872       -2.7789269018       -0.4432647229
 H       -12.9254905008       -5.6913901228        0.0401325421
 H       -14.4979454168       -5.1965406964        0.4890345994
 H       -13.4910316724       -6.1778039608        1.5380474995
 H        -9.7679887490       -2.0950952929        2.2991800948
 H       -10.7182177560       -2.4375968804        3.5906247788
 H        -9.6374621360       -0.3787433897        3.9501317223
 H       -11.3308161703        0.0261013003        3.9036848609
 H       -12.6723402300        2.8027867622        2.6407887430
 H       -12.4148520103        1.4053671696        1.6043119769
 H       -14.2480431139        2.6889113019        0.4401373592
 H       -12.7166565021        3.1623389049       -0.3534410998
 H       -13.2547026088        7.2307184458        2.8877111065
 H       -12.9441345716        8.5884093681        1.8727126318
 H       -11.1618460956        6.9204197147        3.5459688668
 H       -11.5935554408        8.6314711194        3.9239899880
 H        -6.2991806945        8.7077711905        1.2885613423
 H        -7.7726575448        9.3699588597        0.4788608218
 H        -5.9098649048        7.4049319345       -0.9580747986
 H        -5.6148582252        9.1436688782       -0.9126877917
 H        -6.4094229906        5.4470833406       -4.8214820917
 H        -7.7293437160        6.2332528681       -5.6622635106
 H        -7.9353401417        3.8866659769       -5.9395358895
 H        -9.1090469194        4.2039582815       -4.6323773707
 H       -10.8728656322        0.6412217110       -3.1195595036
 H       -10.3181202210        1.0313330074       -1.3809942567
 H        -9.3382826769       -0.0772867472       -2.4486259303
 H        -9.1862448262        1.6573990469       -5.6864455358
 H        -8.4050437021        0.1577480749       -5.4689660172
 H        -7.4124134677        1.5480314985       -5.9860751446
 H        -5.9591068599        0.5362060605       -3.6108965554
 H        -7.3226550109       -0.2170522816       -2.9917714627
 H        -6.6090811459        1.2110920894       -2.2060941925
 H        -7.7569026987        8.4661279334       -5.3959952693
 H        -6.9034068049        9.7197031352       -4.5734286428
 H        -8.5049703394        9.2973264758       -4.1875512848
 H        -5.2063360548        6.6690652762       -3.4279106664
 H        -4.8206889104        8.4348077322       -3.5197049537
 H        -5.3991713399        7.6148139936       -4.8717700692
 H        -7.9192048826        8.3210668945        4.5577100073
 H        -7.9074211064        9.6145595735        3.3209363430
 H        -6.6124733528        8.3449687178        3.3374711880
 H        -9.1494755128        5.3154085233        2.8333427508
 H        -8.9442697467        6.1235009768        4.3747261338
 H        -7.5698400021        5.7371411423        3.2174732978
 H       -12.5644780460        6.4894480704       -1.8044978957
 H       -13.6014759483        5.0185702654       -1.6828504941
 H       -11.7994005890        5.1446804874       -1.2653607802
 H       -14.5359742153        7.7513825708       -0.0647735741
 H       -15.1200045026        6.7350574232        1.1453173201
 H       -15.3256909403        6.1483802347       -0.5196812397
 H        -9.5179565490        1.5858480393        4.4585787572
 H       -11.0744987116        2.5015952397        4.2385889017
 H        -9.5948145533        3.3117752248        3.9533269454
 H        -8.3018940100        2.4755121689        0.8667543683
 H        -7.6312753227        1.7947358026        2.3922165419
 H        -8.2048351326        3.4745336285        2.2425257368
 H       -10.6641189997       -4.4868046518       -0.2587828513
 H        -9.9888437823       -4.0227959160        1.2480790429
 H       -10.0785247331       -2.8113531408       -0.0609212560
 H       -13.1180852145       -3.5595114360       -1.2388681340
 H       -12.4024783521       -1.9280006656       -0.9894582458
 H       -13.8705073846       -2.3936317744       -0.0940960843
 Na       -9.4442101412        4.9893858305       -0.8932121070
