117

 C        -1.5229090692        3.2865933719        6.9693472468
 C        -2.5684856695        4.3463275291        7.0199774676
 O        -3.3783920345        4.3763346930        7.9393371903
 C        -2.7080190374        5.2453698042        5.8203033851
 C        -4.0437958621        4.6494830416        5.0956674690
 O        -3.9095947316        3.9837549790        4.1059241367
 C        -5.3916168892        4.7775970038        5.8083178210
 C        -6.3898964595        3.9181059406        5.2093107922
 C        -7.6398927485        4.7446774539        4.7630019332
 O        -7.4957336848        5.9104935280        4.5419853628
 C        -8.9739462870        3.7419536107        4.2605941886
 C       -10.2406765986        4.6642073865        3.9888914985
 O       -11.3381428419        4.3522332191        4.4084693939
 C       -10.0193441910        5.9088085847        3.1380745520
 C       -11.2123436097        6.3952827261        2.3032640202
 C       -11.4631433498        5.5975610506        0.9843970337
 O       -10.7647800065        4.6776702031        0.7266470393
 C       -12.6280333936        6.0940366081        0.0843658852
 C       -13.3213348981        4.8254623982       -0.3832050212
 O       -13.2245723791        4.4343202634       -1.5093749867
 C       -14.2205211198        4.1709543976        0.7476030106
 C       -14.5832199712        2.7968665216        0.2944741534
 C       -13.4020225994        1.7190622133       -0.1990364477
 O       -12.3563917425        1.6347897238        0.4162040630
 C       -13.9842586066        0.6699669206       -1.1889960115
 C       -13.2624380355        0.9661817072       -2.7021751253
 O       -12.2261952218        1.6284832188       -2.7462716698
 C       -13.8166818943        0.1598489016       -3.9435230572
 C       -12.8578071911        0.2949601703       -5.1655134611
 C       -12.7129522980        1.7033892444       -5.6589020602
 O       -13.4693180654        2.5441538892       -5.1622863489
 C       -11.7127408037        2.0842092194       -6.7277266966
 C       -10.4233181627        2.9201758928       -6.1047514508
 O        -9.4596114625        2.3356174984       -5.6218480762
 C       -10.5303986795        4.4221973779       -5.9543120915
 C        -9.4542580741        4.9598100368       -5.0501209040
 C        -9.6639434489        4.5261766034       -3.6661896474
 O       -10.7755341321        4.4944699142       -3.1512302540
 C        -8.3882983333        4.3507632782       -2.7548941544
 C        -8.2785244298        2.7149836590       -2.5518348163
 O        -9.1396907155        2.1028278550       -1.9697040966
 C        -6.9589058527        2.0470464740       -2.8962782399
 C        -7.0851080610        4.9368004838       -3.4873690185
 C        -8.4335420113        5.1854755966       -1.4180359946
 C       -11.1294625657        0.8378868693       -7.3835397117
 C       -12.4898552615        2.9925690760       -7.7971743221
 C       -13.5912949468       -0.7863314183       -0.7323381569
 C       -15.4452608799        0.8357245678       -1.5280646161
 C       -13.5986693861        7.1410086247        0.6029205923
 C       -11.8832525016        6.8060716632       -1.0415049140
 C        -8.4483091113        2.9546251926        2.9817766662
 C        -9.2870755875        2.7164718678        5.3890796801
 C        -2.8878812286        6.6729218281        6.3245905981
 C        -1.5700877131        5.0162456073        4.8281761811
 H        -1.6908043921        2.6425476904        6.0951602811
 H        -1.7120418284        2.5133310722        7.8359285639
 H        -0.4497037164        3.4982065351        7.0388899904
 H        -5.7919439563        5.8306491604        5.9817861202
 H        -5.1713604471        4.4552316138        6.7793848062
 H        -6.7051587237        3.0608841622        5.8538812258
 H        -6.0321959726        3.5525524167        4.2750296907
 H        -9.1257314552        5.8548185151        2.4590919761
 H        -9.6425516998        6.6996909453        3.8082979614
 H       -11.0367054696        7.3952298766        2.1003513885
 H       -12.1784940686        6.2864742643        2.8151738979
 H       -15.0342033153        4.8413527537        0.9132064619
 H       -13.7566977429        4.2244028972        1.7554017060
 H       -15.4560445550        2.9814906684       -0.3054913294
 H       -14.9631685555        2.1603015258        1.0799099104
 H       -14.7928703534        0.6587325140       -4.1738620735
 H       -13.8700069788       -0.9215064772       -3.6949317827
 H       -13.2528542164       -0.3345343327       -6.0466131096
 H       -11.8698715983       -0.1801908890       -4.8627910720
 H       -11.4816459147        4.7008202543       -5.5547395423
 H       -10.4435821361        4.9092545852       -6.9288387958
 H        -9.5346476473        6.0772459196       -5.0090023671
 H        -8.4058557080        4.7924796970       -5.4345332265
 H        -6.6404862211        1.6246579788       -1.8786248879
 H        -6.1400643032        2.7128360017       -3.1719516492
 H        -7.1758350841        1.1932360535       -3.5478538497
 H        -7.1728841173        5.9534799287       -3.5128545288
 H        -6.8314343336        4.4933324541       -4.4454854470
 H        -6.2094229454        4.7964734016       -2.8276855479
 H        -9.1865766096        4.8020769877       -0.7181066809
 H        -8.7569728097        6.1420288613       -1.5835859639
 H        -7.4280159220        5.3260456932       -1.0230444669
 H       -11.8913714425        0.3022551188       -7.8653528984
 H       -10.5416513255        0.2728241110       -6.6695886436
 H       -10.3894516627        1.2518126164       -8.1122781479
 H       -12.3316864441        4.0223207040       -7.7720480383
 H       -13.5226269526        2.7451224473       -7.8725828130
 H       -12.1553239017        2.6636235861       -8.7803219285
 H       -14.0040760196       -0.9442937139        0.2646932938
 H       -12.5233333060       -0.7810790908       -0.7899012053
 H       -13.8362055086       -1.5999047546       -1.3980885740
 H       -16.0193760431        0.4624929697       -0.6814800979
 H       -15.6275300400        0.2329111440       -2.4055936431
 H       -15.7139664549        1.8397922605       -1.8188265072
 H       -14.6441239717        6.7051541924        0.5763707803
 H       -13.6327358554        8.0164918996        0.0677837904
 H       -13.4760239796        7.3135385357        1.7261239994
 H       -11.2522038609        6.3050232914       -1.7170927478
 H       -11.3025976608        7.5794154999       -0.5784367622
 H       -12.5941426714        7.3797558108       -1.6589434774
 H        -7.7529023198        2.1727337544        3.2357824988
 H        -8.0081332186        3.6074761901        2.2083547482
 H        -9.2804026635        2.4995370224        2.4793560028
 H        -8.9142214153        3.0788772979        6.2916143145
 H        -8.6397900131        1.8714659486        5.2639892079
 H       -10.3314378557        2.5555768341        5.3491533928
 H        -3.4328991510        6.6967466408        7.2229538757
 H        -3.3734016082        7.3234681470        5.6216254515
 H        -1.9399292983        7.1769559377        6.6089447503
 H        -1.3343526768        3.9926048640        4.8611053302
 H        -0.6638898902        5.5426860068        5.0772678732
 H        -1.7493684927        5.4608901450        3.8329860264
 Na      -11.1405855713        3.1983389179       -1.1345980079
