117

 C       -13.4902592205       -5.3053056483        0.8984733804
 C       -12.8072039338       -4.2938588831        1.7268463871
 O       -12.6079245244       -4.4450188800        2.8874865253
 C       -12.1433775586       -3.1157878473        0.8716151761
 C       -12.0355229984       -1.8999157220        1.8759148861
 O       -12.7142232892       -0.8982208819        1.7435597818
 C       -10.9786705778       -1.9313634979        2.9415772513
 C       -10.5342015250       -0.4846002327        3.3908155803
 C       -10.2519299787        0.4776567287        2.2173147481
 O       -10.2303061162        0.1290317147        1.0320248964
 C        -9.8780319432        2.0241945548        2.4494188707
 C       -10.8670098177        2.9350788725        1.5067749719
 O       -10.4615933704        3.8987564572        0.9432255517
 C       -12.3679439201        2.4627373843        1.5696570243
 C       -13.2130311779        3.2565787426        0.6236446687
 C       -13.5492487376        4.6510362729        1.2220663261
 O       -13.8391745177        4.8985922578        2.3654642411
 C       -13.3300658355        5.9705576222        0.1619509637
 C       -12.0848561654        6.6948438548        0.8594510034
 O       -10.9629543602        6.5484115305        0.4669865251
 C       -12.4105276399        7.5004104206        2.0840684342
 C       -11.1401995916        7.8143460976        3.0353854330
 C        -9.9541512959        8.3844740080        2.2776204848
 O        -9.9799414485        9.3799552616        1.6208462963
 C        -8.5600864519        7.6326726533        2.5357362230
 C        -7.8123615050        7.4588562813        1.0099155820
 O        -8.2280652779        6.6382055189        0.2429524643
 C        -6.6812372616        8.4053706236        0.5295840977
 C        -6.2665113703        7.9603233577       -0.9204531235
 C        -7.3900695567        8.3086516152       -1.9575317425
 O        -8.5054061841        8.6806464097       -1.6050005457
 C        -6.9969900742        7.9579054567       -3.4361456164
 C        -7.7157199293        6.4591346142       -3.6852551543
 O        -8.6055683583        6.0654345047       -2.9478012943
 C        -7.1968497532        5.5599313903       -4.8155480730
 C        -7.9791159026        4.2395111040       -4.8897153253
 C        -7.2334308134        3.1976280845       -3.9411043787
 O        -6.1906053814        3.4432307958       -3.4233974119
 C        -7.8759009021        1.8000022661       -3.7556627757
 C        -9.0781334813        1.9498624084       -2.7682858123
 O        -9.2752020557        3.0399570454       -2.1940442190
 C        -9.8762729966        0.6976163669       -2.3825510413
 C        -8.2631756948        1.0656660543       -5.1077923069
 C        -6.8419929470        0.8677650068       -3.0288540683
 C        -7.6723893901        9.0415093957       -4.3634740101
 C        -5.5256283660        7.8105416917       -3.6527911177
 C        -7.7218257860        8.6428247705        3.3836498704
 C        -8.6512046776        6.2145940685        3.1309246368
 C       -12.9292390590        5.5363629204       -1.3292893546
 C       -14.5163516705        6.8864806613        0.0994047847
 C       -10.0147682827        2.5843771066        3.8724023577
 C        -8.4527265204        2.1980144293        1.9028031080
 C       -10.8141969317       -3.7096536817        0.3435475815
 C       -13.0003900721       -2.6677114128       -0.2747004902
 H       -12.8017701211       -5.6780189137        0.0701685296
 H       -14.3664708925       -4.9535793541        0.3944757515
 H       -13.8294497831       -6.1865622461        1.4693432677
 H       -10.1224577482       -2.5523328598        2.6196953331
 H       -11.3127203059       -2.4453062380        3.8773534592
 H        -9.5880903472       -0.5513413961        4.0298627405
 H       -11.3202340860       -0.0689007514        4.0002331094
 H       -12.7045108275        2.4887847537        2.6273291495
 H       -12.2714565409        1.4048972249        1.2223514040
 H       -14.1289768499        2.7014408323        0.4787460182
 H       -12.6927113730        3.4159198717       -0.3367893124
 H       -13.1440887064        6.9443438908        2.6838306353
 H       -12.9479058665        8.4303272032        1.9260382539
 H       -11.0045632565        6.8863398533        3.5711697075
 H       -11.4785114319        8.5050683101        3.8084123693
 H        -5.7666021144        8.1994529195        1.1426849090
 H        -6.9093916738        9.4162686145        0.6383561125
 H        -5.7940196601        6.9698291315       -0.9614150518
 H        -5.5077350572        8.6069249404       -1.3057355930
 H        -6.1645843170        5.2923882781       -4.6839100602
 H        -7.1806140291        6.1789468132       -5.7291349048
 H        -7.9822561856        3.8490336923       -5.8993744869
 H        -9.0055972770        4.4693941732       -4.5768954131
 H       -10.5261328231        0.5964176731       -3.2225419381
 H       -10.4690720271        0.8916535352       -1.4651651723
 H        -9.2090427093       -0.1615178151       -2.3110693715
 H        -9.2757035933        1.3480473475       -5.4104734631
 H        -8.4169743661       -0.0338032327       -4.9080074204
 H        -7.6229803288        1.2097956036       -5.9254797475
 H        -5.8378463037        1.1335736318       -3.3794886723
 H        -6.9086658510       -0.1901210667       -3.1482103339
 H        -6.8179740191        1.0131443259       -1.9543297551
 H        -7.7766387080        8.8379070686       -5.4366508316
 H        -7.2797858484       10.0322565837       -4.2534158891
 H        -8.7920853233        9.2193661168       -4.0879029558
 H        -5.0533689672        7.0426894786       -3.0296305248
 H        -5.0582282002        8.8192951440       -3.5505153608
 H        -5.2969257487        7.5491467568       -4.7146756372
 H        -8.2343598475        9.1551874490        4.1275583224
 H        -7.3692370896        9.3603812135        2.6907505906
 H        -6.8845466374        8.1560372729        3.8239674247
 H        -9.2357809684        5.5141547555        2.5296066354
 H        -9.0752593963        6.1857921131        4.0952874362
 H        -7.6810554359        5.7271705274        3.1281427381
 H       -12.7735851220        6.4309490533       -1.9582173358
 H       -13.6586132796        4.9708376267       -1.7910227877
 H       -11.9831165410        5.0568549881       -1.4186977931
 H       -14.4942268178        7.7830507657       -0.4844721578
 H       -14.7620306281        7.1319301684        1.2370485840
 H       -15.3021932648        6.2657238392       -0.3178140865
 H        -9.2961589098        2.1388794852        4.5560586936
 H       -11.0725902611        2.3864958777        4.1171808460
 H        -9.9768916940        3.6979806037        3.7826513350
 H        -8.2801969792        1.6747649450        0.9644460222
 H        -7.7395920603        1.7707184826        2.6065676597
 H        -8.2334548299        3.2713202115        1.8456431361
 H       -10.9448326368       -4.6078826505       -0.2918214459
 H       -10.1137410224       -3.9116278726        1.1631326609
 H       -10.3955343185       -2.9752138683       -0.3076303244
 H       -13.1010055382       -3.3738186167       -1.0451150077
 H       -12.4175765522       -1.8841694356       -0.7464551795
 H       -13.9827650669       -2.2884634577       -0.0330405928
 Na       -9.6599734980        5.1219687674       -0.8675846803
