117

 C       -13.8187616938       -5.2070108561        1.2465431901
 C       -12.7558412017       -4.3507866313        1.8548283216
 O       -12.1894698877       -4.5970455714        2.9072194290
 C       -12.4852704630       -3.1068283423        1.0443233260
 C       -12.3696973592       -1.8719031866        2.0529614705
 O       -13.1313147789       -0.9336270204        2.0178468615
 C       -11.2863524501       -1.8929427232        3.1234416665
 C       -10.9120387105       -0.4729475925        3.4588686417
 C       -10.2866246541        0.3140660619        2.2942942823
 O       -10.0267908164       -0.2882945416        1.2496664564
 C        -9.9525674398        1.8036867596        2.4165059053
 C       -10.9677289395        2.7163801296        1.5130260602
 O       -10.5142290869        3.5718902639        0.8018555626
 C       -12.4640328723        2.4370993291        1.6781689598
 C       -13.1436926644        3.2460815764        0.5798910189
 C       -13.3378879592        4.7139812993        1.0887001964
 O       -13.6750779266        4.9273824835        2.2402389843
 C       -13.3431917390        5.9735846585        0.0897730461
 C       -12.2065903477        6.8816397866        0.5196684724
 O       -11.1291212357        6.7737869744       -0.0577474741
 C       -12.3523312416        7.7009745125        1.7203994990
 C       -11.1164969224        7.6735292623        2.6714072068
 C        -9.8155347674        8.0824098514        1.8715681881
 O        -9.8650282957        9.1951878978        1.3191153701
 C        -8.3656092270        7.6230259499        2.1509912537
 C        -7.5784182469        7.3342359715        0.7911566907
 O        -7.9273981914        6.3940869595        0.1287345438
 C        -6.4206989972        8.2567164266        0.4062087414
 C        -5.8800769213        7.9991184175       -0.9790798887
 C        -7.0614476518        8.3104330141       -1.9590613068
 O        -8.1165224887        8.7865269708       -1.5944051673
 C        -7.0117545991        7.8449821009       -3.4688148585
 C        -7.5099144176        6.3494745248       -3.6844809724
 O        -8.3824074623        5.9070091070       -2.9659265294
 C        -7.0449722704        5.5920918462       -4.9772316860
 C        -7.5174876283        4.1655931697       -4.9284876235
 C        -7.1059843286        3.4119117738       -3.6625183439
 O        -6.2095159517        3.7181415863       -2.9257437280
 C        -7.8195134585        2.0051527314       -3.3732441325
 C        -9.1454987188        2.1347363670       -2.4010571089
 O        -9.5937393151        3.2030348749       -2.0198705778
 C        -9.8241810609        0.8235325870       -1.9378503947
 C        -8.2092277080        1.4128347140       -4.7361298566
 C        -6.8949227694        1.0877542787       -2.5632333684
 C        -8.0515528007        8.6838427907       -4.2581451515
 C        -5.6110020823        7.9120169985       -4.1135971951
 C        -7.6856605846        8.7934406464        3.0048010900
 C        -8.3859931321        6.3643888969        3.0104098632
 C       -13.1647026554        5.6163342348       -1.3610550119
 C       -14.7608280620        6.6739218475        0.1735919457
 C       -10.1050613036        2.2891784018        3.9419349700
 C        -8.5567576668        2.1281577016        1.9509543713
 C       -11.0816638897       -3.1782798292        0.4019460837
 C       -13.4393488685       -2.7270511556       -0.1060497690
 H       -13.5475539426       -5.4629315730        0.1902838239
 H       -14.7351574051       -4.7005173411        1.1659502813
 H       -14.1250209302       -6.0676960937        1.8063074027
 H       -10.4391295355       -2.4379035656        2.7767307123
 H       -11.7321555271       -2.4083475792        3.9784165394
 H       -10.1268565719       -0.4102188089        4.2961906429
 H       -11.8033556164        0.0595055306        3.7078505835
 H       -12.7031153511        2.7313514395        2.7082544161
 H       -12.5785234187        1.3497940978        1.5118440007
 H       -14.1306906841        2.8139633734        0.5001583223
 H       -12.5255537065        3.2283011865       -0.3270676318
 H       -13.2637109990        7.3413072109        2.2384637458
 H       -12.6243512993        8.7432117366        1.5220031804
 H       -11.2309562447        6.7497690221        3.2262610524
 H       -11.2215765201        8.3737246584        3.4959666785
 H        -5.5700664219        8.0965656571        1.1974839822
 H        -6.6127234983        9.3113540325        0.4384793167
 H        -5.4047080714        7.0087648510       -1.2794322113
 H        -5.1566285433        8.7323779037       -1.2492807501
 H        -5.9762995961        5.6421298168       -5.0885650866
 H        -7.3569543400        6.0854995297       -5.9175506989
 H        -7.1904719536        3.6578644920       -5.7998745785
 H        -8.5894271837        4.1854103937       -5.0037367481
 H       -10.8652891252        1.0480727710       -2.2890747984
 H        -9.7412059422        0.5717569059       -0.8039435967
 H        -9.3933795222       -0.0259559696       -2.4845194010
 H        -9.1397222259        1.7960488994       -5.1296295831
 H        -8.3634919178        0.3123928113       -4.5561799275
 H        -7.4824005914        1.4966706775       -5.5658208603
 H        -6.3749197734        0.4950011738       -3.2678027610
 H        -7.3724343082        0.4304382099       -1.9472113171
 H        -6.1349373295        1.5570355726       -1.8947866587
 H        -8.2679620733        8.3628871133       -5.2705785655
 H        -7.9825271959        9.7777874131       -4.1274829070
 H        -9.0619498527        8.5681364018       -3.8598172320
 H        -4.8858539747        7.2519801542       -3.8166022956
 H        -5.1406848231        8.9590094448       -4.0102791807
 H        -5.7471309266        7.7184231758       -5.2109935683
 H        -7.9542085741        8.7296609274        4.0215570299
 H        -8.0148603671        9.7783977869        2.6259253008
 H        -6.5731537952        8.6839342711        2.9080695149
 H        -8.9578690690        5.5007653211        2.6176135848
 H        -8.7603044125        6.5552918270        4.0209747124
 H        -7.3254787667        6.0316626901        3.2663873808
 H       -13.1826641643        6.6074069792       -1.8552681268
 H       -13.8877662259        4.9992403480       -1.8874177696
 H       -12.1932410760        5.1634059762       -1.4933657270
 H       -14.7906920243        7.6696047618       -0.2066905934
 H       -15.2182343163        6.4696782225        1.1668615084
 H       -15.4156065109        6.1683139330       -0.5575002658
 H        -9.5655127088        1.6197025385        4.6395191935
 H       -11.1362233803        2.4193840643        4.1064947170
 H        -9.5735545250        3.2430035249        4.0109497475
 H        -8.5135861596        1.7664267553        0.9292222609
 H        -7.8241682859        1.5137925883        2.4316133645
 H        -8.2863801355        3.1423251894        2.1367279470
 H       -11.1661833638       -3.6650696504       -0.5712593765
 H       -10.4121704655       -3.6973060301        1.0979307091
 H       -10.6536087189       -2.2379563013        0.1660838266
 H       -13.5163943413       -3.4682182960       -0.9355410952
 H       -13.1240676826       -1.7542940874       -0.5509058570
 H       -14.4740407070       -2.5005892490        0.3257417041
 Na       -9.6045933368        5.3127940235       -1.0966383504
