117

 C       -13.9343486728       -5.2770515171        1.3909072309
 C       -12.7849522328       -4.3474615275        1.8465643177
 O       -12.0967113099       -4.6186813786        2.8401779730
 C       -12.4627097986       -2.9763103813        1.0719332064
 C       -12.4705792041       -1.8261740844        2.1204076525
 O       -13.3025124198       -0.9393083406        1.9948854847
 C       -11.3966105950       -1.8550626928        3.1998313638
 C       -10.9590913247       -0.4237357457        3.4594617330
 C       -10.2676950621        0.2461135930        2.2458258030
 O        -9.9281963012       -0.2477437108        1.2126131237
 C        -9.9820511551        1.8569380086        2.4484455711
 C       -10.9347955233        2.6899427025        1.5944101970
 O       -10.4320187236        3.4507738820        0.7686459885
 C       -12.4785981942        2.4882110464        1.6480081110
 C       -13.2180778603        3.3363091777        0.4846236060
 C       -13.4817745947        4.7262243145        1.0422234776
 O       -13.5294813051        4.9285088896        2.2342054795
 C       -13.4131919294        5.9022712541       -0.0231249908
 C       -12.2303573061        6.8196234765        0.5225048105
 O       -11.1768375930        6.8086852956       -0.1387753671
 C       -12.3268165773        7.7508760823        1.7363830609
 C       -10.9482470757        7.6189570845        2.5510421372
 C        -9.7658654000        8.1876330167        1.8435503395
 O        -9.8482300281        9.1969574396        1.1550483941
 C        -8.2763973735        7.5603666850        2.1976296075
 C        -7.4698797956        7.2288796139        0.8671773725
 O        -7.7693151380        6.3633021587        0.0611430635
 C        -6.3490428425        8.2078814284        0.4407059415
 C        -5.9224531933        8.0240741220       -1.1055862091
 C        -7.1195636013        8.2477081285       -2.0056217447
 O        -8.0270336409        8.9001379628       -1.6411190787
 C        -7.0932686029        7.8275812523       -3.5993665043
 C        -7.5037936706        6.3288566046       -3.7362342820
 O        -8.2994123833        5.8022103518       -2.9786456053
 C        -6.9584925122        5.5547015502       -4.8690755652
 C        -7.5007736484        4.1225584980       -4.8520390875
 C        -7.1258805991        3.4028249694       -3.5918139225
 O        -6.3200872310        3.8605410055       -2.7782287240
 C        -7.8527989335        1.9419561487       -3.2681802328
 C        -9.1309277021        2.1868293996       -2.4182830131
 O        -9.5024431175        3.2688342350       -2.0780527799
 C        -9.7701866956        0.9326986923       -1.8993211882
 C        -8.3189952522        1.3051871594       -4.6014744099
 C        -6.8637013515        1.1440293603       -2.4285392544
 C        -8.0408090373        8.7500223387       -4.3049121273
 C        -5.6583153815        8.0499334744       -4.2742323270
 C        -7.6729393315        8.7329349608        2.9187669561
 C        -8.3770976069        6.3568941640        3.1605401764
 C       -13.1997769694        5.4582480353       -1.5085785572
 C       -14.8429704256        6.5891876216        0.1865017060
 C       -10.1792433937        2.3841802891        3.9340623512
 C        -8.5309208928        2.0260327979        1.9838223481
 C       -11.0800196307       -3.2138823958        0.3496085747
 C       -13.5778058186       -2.6576746492       -0.0280969416
 H       -13.8105797344       -5.4825145748        0.3327663002
 H       -14.9835649248       -4.9171282941        1.5081830001
 H       -13.9829605187       -6.2123383498        1.9590400238
 H       -10.5944506168       -2.5202739602        2.8512982442
 H       -11.8441392110       -2.2274750981        4.1794689603
 H       -10.1448421663       -0.3701540938        4.2346057007
 H       -11.8243135201        0.1494854459        3.7349774748
 H       -12.6734652123        2.8587839477        2.6730378717
 H       -12.5902754669        1.3726402180        1.5864247814
 H       -14.2163407546        2.9416984515        0.2601775114
 H       -12.5676938945        3.4204518889       -0.3557231435
 H       -13.2323196936        7.5653031601        2.3208328651
 H       -12.4434891099        8.7818983022        1.4327358385
 H       -10.9151620684        6.5857762699        2.9202090658
 H       -10.9700981414        8.1242361752        3.5122519652
 H        -5.5346600093        7.9454500408        1.0623017865
 H        -6.5282235223        9.2482748647        0.6674883711
 H        -5.6266454826        6.9931972770       -1.3489642651
 H        -5.1725230080        8.6553502546       -1.5021415890
 H        -5.8670004431        5.5751850982       -4.7829180391
 H        -7.0860411191        6.0299096354       -5.8238269228
 H        -7.0940654114        3.5787669021       -5.7099710281
 H        -8.5724073656        4.1232884221       -5.0280262517
 H       -10.8244004529        1.2182027751       -1.6678878733
 H        -9.1899502875        0.6807175062       -1.0040129184
 H        -9.6304635360        0.0650330609       -2.5471193425
 H        -9.1810561151        1.7519935207       -5.0604913324
 H        -8.4995046011        0.2709648355       -4.4321759704
 H        -7.5005210244        1.3336053918       -5.4197449499
 H        -6.1990538167        0.6190962347       -3.0728203233
 H        -7.2909593855        0.4239502305       -1.7259137793
 H        -6.2383512173        1.7943266244       -1.7937170045
 H        -8.3216351628        8.2899035789       -5.2739030072
 H        -7.5923842704        9.8019775195       -4.4292447055
 H        -8.9663472036        9.0139003649       -3.9155291327
 H        -4.8429815647        7.4593081186       -3.8191283146
 H        -5.3076461310        9.0838921173       -4.1218318920
 H        -5.6152360176        7.8277911104       -5.3620282855
 H        -8.2577854013        8.9129470820        3.7878963324
 H        -7.7625462009        9.5893140677        2.3044060470
 H        -6.6528994013        8.5500825575        3.1731115368
 H        -8.8141069023        5.4904973454        2.7186306763
 H        -9.0244765870        6.5993181110        4.0202925964
 H        -7.4549646968        6.0994689996        3.7396864413
 H       -13.4054031472        6.2896183966       -2.0760760656
 H       -13.8882009957        4.6786245499       -1.8880464922
 H       -12.2312017015        5.0991832575       -1.6728701866
 H       -14.8404643060        7.5936289851       -0.3353628598
 H       -15.0977624890        6.5360900754        1.1649106737
 H       -15.6801508176        6.0701021427       -0.3823900573
 H        -9.5480260649        1.6917085459        4.5754298492
 H       -11.2151602097        2.4991829974        4.1927407477
 H        -9.6072162228        3.2989339982        3.9875742474
 H        -8.6229437142        1.7085908652        0.9358563633
 H        -7.8182215406        1.3391726587        2.3883862919
 H        -8.1769421750        3.0139065386        2.1163442311
 H       -11.2219085884       -3.9090631671       -0.4555128897
 H       -10.2786807160       -3.4858702638        1.0360609491
 H       -10.7762368411       -2.2981099898       -0.1543665139
 H       -13.6446838763       -3.5020770461       -0.7545869006
 H       -13.4591572790       -1.7497356842       -0.5884357131
 H       -14.5459090472       -2.5518466051        0.4775376922
 Na       -9.6293279515        5.3162063599       -0.9272558681
