117

 C       -14.1623273337       -5.1414669671        2.0608635437
 C       -12.8410487574       -4.3566108302        1.9573606818
 O       -11.8432508082       -4.6706984002        2.5610955016
 C       -12.8027622470       -2.9752873527        1.0071890639
 C       -12.7113015835       -1.7115049791        2.0068054740
 O       -13.4806476412       -0.7674607614        1.9410252006
 C       -11.5556815627       -1.7446514441        3.1191128838
 C       -11.2414191958       -0.2625211192        3.5302350260
 C       -10.3749860909        0.3900011671        2.4290685045
 O       -10.0372971246       -0.1853900854        1.4372724288
 C       -10.0341546882        1.8769316091        2.5764007142
 C       -10.8373951125        2.6074021401        1.4709246383
 O       -10.2884719728        3.4890203034        0.7983769902
 C       -12.3931111568        2.3425016974        1.4800334779
 C       -13.1404935475        3.2404998479        0.4695137755
 C       -13.2620981483        4.6918940217        0.9584845545
 O       -13.2200289372        5.0390905173        2.0929268385
 C       -13.4609924158        5.8413460225       -0.0727333591
 C       -12.1161099415        6.6805909139        0.0082947317
 O       -11.3061720189        6.5280940149       -0.9056017844
 C       -12.0189855498        7.6486746582        1.2121209797
 C       -10.7407750375        7.2940557715        2.0787274675
 C        -9.5750863140        8.0010233574        1.5782934483
 O        -9.6070513568        8.9348594801        0.8453394858
 C        -8.1018840583        7.5689951752        2.0448643488
 C        -7.3730585114        7.1071214556        0.8010556175
 O        -7.5765554487        6.0091653510        0.3014188563
 C        -6.3703986486        8.0715367260        0.2647707662
 C        -6.1909004746        7.6919987468       -1.2852546065
 C        -7.0998738976        8.4426045589       -2.2261385829
 O        -7.8605797951        9.3019928557       -1.8524658099
 C        -7.1875002444        7.9412475094       -3.7265308209
 C        -7.6010066078        6.4481432341       -3.6211987812
 O        -8.4867804316        6.1271845275       -2.8355713687
 C        -6.9049413365        5.4756639425       -4.5655878571
 C        -7.4401051349        4.0366717338       -4.4770823585
 C        -7.1089001816        3.3339063808       -3.1691405844
 O        -6.4241462715        3.8514104624       -2.3078213674
 C        -7.7712073226        1.9642964545       -2.9484775860
 C        -9.0460640110        2.2647584200       -2.1803975268
 O        -9.4591962718        3.3962697522       -2.2297240362
 C        -9.7901628933        1.1785915983       -1.4965379298
 C        -8.0734956893        1.1575989285       -4.2230586840
 C        -6.8829966246        1.1089176312       -1.9811506453
 C        -8.2120363363        8.6655221091       -4.5594428565
 C        -5.8181989028        8.2234754040       -4.3972120892
 C        -7.5065887971        8.8844159934        2.7447247027
 C        -8.1230820655        6.4611023675        3.1457883281
 C       -13.5949315443        5.3652295173       -1.4732497274
 C       -14.7016222443        6.6650495908        0.2796046969
 C       -10.2634547879        2.6024479362        3.9196411102
 C        -8.4672646280        2.0600748097        2.1392457735
 C       -11.4991525937       -2.9341273788        0.1470953052
 C       -14.1248762900       -2.8806326638        0.2086559003
 H       -14.4217169388       -5.4772319685        1.1003017410
 H       -15.0503902080       -4.5644344401        2.4046135384
 H       -14.0585874728       -6.0122517477        2.6979780512
 H       -10.6325766035       -2.2445538954        2.8601733398
 H       -11.9956067153       -2.2266519895        4.0028662393
 H       -10.7225604063       -0.2056771439        4.5359436772
 H       -12.1290179092        0.3640174234        3.5275527905
 H       -12.7457545546        2.5715971738        2.5011869988
 H       -12.4531759595        1.2385015131        1.3008903640
 H       -14.1844770154        2.8646048520        0.3806373738
 H       -12.6861467301        3.3170213688       -0.4926706662
 H       -12.9282165450        7.6815334906        1.8384461998
 H       -11.9428495622        8.7121150919        0.9156642714
 H       -10.6557416410        6.2070237898        2.2964656134
 H       -10.9751300094        7.7340877377        3.0479021559
 H        -5.4493840730        8.0127593359        0.8071358861
 H        -6.7649019413        9.1224529622        0.5061911119
 H        -6.5465764567        6.6506307741       -1.3973281031
 H        -5.1792959262        7.7859227987       -1.6792558025
 H        -5.8091808835        5.4468895393       -4.4190260945
 H        -7.0226984980        5.9305646418       -5.5511801742
 H        -7.0851028613        3.5052861412       -5.3323567034
 H        -8.4951000424        3.9921104578       -4.5873317968
 H       -10.2172412956        1.7168381453       -0.6097455579
 H        -9.0839759709        0.3712003477       -1.2446197982
 H       -10.6140679510        0.7620205118       -2.1933490138
 H        -8.8029038757        1.7498748149       -4.8271141379
 H        -8.5075328305        0.2028754064       -3.9960909375
 H        -7.1780302123        0.9360244458       -4.8675073007
 H        -5.8800139500        1.1664319164       -2.2809400539
 H        -7.1594835743        0.0343347967       -1.8811127371
 H        -6.9112879639        1.5454484022       -1.0397494050
 H        -7.9545640426        8.5235631715       -5.6239512577
 H        -8.1964024007        9.7638206503       -4.4950148594
 H        -9.2778847296        8.3792697044       -4.4956662192
 H        -5.0728533278        7.5096414473       -3.8074106670
 H        -5.4279333477        9.1774239101       -4.1609310367
 H        -5.6939164616        8.1407567219       -5.4656203105
 H        -7.8446231776        8.8257207022        3.8297545528
 H        -7.7198223340        9.8539014011        2.2613206781
 H        -6.4174291583        8.7324965911        2.7210568176
 H        -8.7420106576        5.6082601205        2.8253403240
 H        -8.6697206876        6.8018913077        4.0830189471
 H        -7.1094678544        6.0980583122        3.4419095444
 H       -13.6004606998        6.2170089302       -2.1422575537
 H       -14.5683198805        4.8132261050       -1.6401037224
 H       -12.7671155074        4.6945183462       -1.8104086139
 H       -14.8568036809        7.5357296441       -0.4097390405
 H       -14.7004649487        6.9660413577        1.3174934488
 H       -15.5136318634        5.9320092797        0.2964134565
 H        -9.6011869061        2.0401955497        4.5976579086
 H       -11.2995748097        2.5706510525        4.2974283132
 H        -9.9162512442        3.6062099852        3.7941452724
 H        -8.1608903865        1.3287598331        1.3703631382
 H        -7.9029417103        1.8529388644        3.0483501064
 H        -8.2599104990        3.0620345394        1.7654614876
 H       -11.5893917530       -3.6446973759       -0.6586203300
 H       -10.6445670592       -3.2987216563        0.7159673999
 H       -11.2798209277       -1.8881944099       -0.1640080363
 H       -14.2200323713       -3.7611781011       -0.5241054440
 H       -14.1966288183       -1.8953587645       -0.3280096998
 H       -14.9522859254       -2.9133014198        0.9483904923
 Na       -9.3108308859        5.1597931135       -0.8302161581
