117

 C       -14.1096572516       -5.0289388469        2.2293128723
 C       -12.8300480567       -4.2777835920        1.9464303021
 O       -11.8045245199       -4.6091544460        2.4709414095
 C       -12.9404077501       -3.0043228424        1.0986860010
 C       -12.7518628450       -1.7599907378        2.0380094166
 O       -13.4459585406       -0.7944548336        1.8186522925
 C       -11.6673838903       -1.7267243250        3.0995911718
 C       -11.3149049973       -0.2327285101        3.5034598407
 C       -10.4140716630        0.4582780150        2.4515733143
 O       -10.0121135071       -0.1618177024        1.4603371674
 C        -9.9916521859        1.9284583138        2.6471906077
 C       -10.8922598121        2.7818745249        1.5503683208
 O       -10.4099214182        3.6073936367        0.8134977120
 C       -12.3767030835        2.4075126654        1.5026327809
 C       -13.0468533019        3.2365071845        0.4228114277
 C       -13.1715213823        4.6480443702        0.9049840058
 O       -13.1242362838        4.9451767277        2.0906484085
 C       -13.5077148891        5.8436309285       -0.2007169459
 C       -12.1294192738        6.6961668353       -0.1203075732
 O       -11.2712295351        6.4307701055       -0.9201260412
 C       -11.9668976440        7.6488850424        1.0098245336
 C       -10.7754899514        7.1987479132        1.9811811336
 C        -9.4635618800        7.9115032091        1.5605235181
 O        -9.4755112688        8.9091659256        0.8717575312
 C        -8.0294351509        7.5378632215        2.1346209781
 C        -7.2493813873        7.0641569877        0.8110126114
 O        -7.5343072165        5.9317557471        0.4112833248
 C        -6.3901771129        8.0523289958        0.1064855913
 C        -6.1017138988        7.7470999122       -1.3863785362
 C        -7.1550816775        8.5113935365       -2.2527660912
 O        -7.7702093433        9.5086852027       -1.8937999878
 C        -7.2076636878        7.9376388949       -3.7539489057
 C        -7.6400873503        6.4461610586       -3.6853450318
 O        -8.4884874222        6.1116367193       -2.8821663680
 C        -6.9158126758        5.4176446902       -4.5373492638
 C        -7.4994775234        3.9740617470       -4.3770869350
 C        -7.0100090858        3.2972959700       -3.0579030954
 O        -6.3204353787        3.8322703581       -2.2459900482
 C        -7.6857578450        1.9561163445       -2.8145867128
 C        -9.1035317573        2.2675545234       -2.1263081350
 O        -9.6382241449        3.3785744030       -2.2263589241
 C        -9.8051976034        1.0470485345       -1.5376129844
 C        -7.9594004915        1.2270191935       -4.1832983320
 C        -6.8624700348        1.0564142407       -1.7919577997
 C        -8.2738804871        8.7981873384       -4.5327311476
 C        -5.8511759874        8.1065772708       -4.4824185646
 C        -7.4722230319        8.8889968140        2.6644055446
 C        -8.1227624850        6.5031896402        3.3155911654
 C       -13.7575765337        5.2406194079       -1.6357863022
 C       -14.6792618828        6.6607021342        0.3676412076
 C       -10.2948620639        2.5626973915        3.9993603231
 C        -8.5344389485        1.9691776545        2.2054955644
 C       -11.6772067223       -2.9349940172        0.1580017207
 C       -14.2066747005       -2.7987686028        0.3115214054
 H       -14.5287987530       -5.5815898427        1.3874076831
 H       -14.9239017466       -4.3353250199        2.5262066583
 H       -13.9336946752       -5.7544519206        3.0250167360
 H       -10.6568227378       -2.1647721459        2.7796454936
 H       -12.0358641182       -2.3101832188        3.9602558062
 H       -10.6573134775       -0.2839128812        4.3234241314
 H       -12.1679953745        0.4887484107        3.7511433116
 H       -12.9048964615        2.5679391367        2.4739737799
 H       -12.3612506700        1.3109641121        1.2722270257
 H       -14.0555978990        2.8135333138        0.4286857772
 H       -12.6611125386        3.2664010008       -0.5912420618
 H       -12.8887102370        7.8380167297        1.5432333713
 H       -11.7535799543        8.6575603172        0.6158335328
 H       -10.7424926652        6.1098281457        2.0637767978
 H       -11.0570710791        7.5837978683        2.9746037698
 H        -5.4764992733        8.1280702505        0.5991918999
 H        -6.8323395743        9.0423336310        0.2266460571
 H        -5.9858779845        6.7566732973       -1.6264052441
 H        -5.2131497279        8.3980424479       -1.6124989104
 H        -5.8681559523        5.3414425042       -4.1897186841
 H        -6.8743105624        5.8281452419       -5.5380179900
 H        -7.2005749816        3.3878245967       -5.2531974917
 H        -8.5860207509        3.9556380721       -4.3917153373
 H       -10.2254639385        1.4303332729       -0.6121279000
 H        -9.0295710795        0.2840356257       -1.3389462295
 H       -10.6010758650        0.6207330033       -2.2339998030
 H        -8.7117483134        1.8578499982       -4.7613712290
 H        -8.3630029807        0.1895101546       -4.1325284690
 H        -7.0850646936        1.1666570145       -4.7442346126
 H        -5.8219947537        0.9298359954       -2.1250279715
 H        -7.2743131218        0.0528167793       -1.6452920608
 H        -6.8226099389        1.5692674707       -0.8740043490
 H        -8.1921028544        8.8584048617       -5.6394956570
 H        -8.3128061606        9.8247301701       -4.2917599018
 H        -9.3346680716        8.3434157591       -4.3312680377
 H        -4.9294976854        7.6622752209       -4.0364682474
 H        -5.6417199655        9.1790424202       -4.5384574512
 H        -5.9122070702        7.8510928788       -5.5695928519
 H        -7.7706835031        9.0918749324        3.7077898247
 H        -7.7290987279        9.6973093718        1.9955447141
 H        -6.4232075416        8.7865117080        2.5876853621
 H        -8.4524605700        5.4644228257        2.9522831024
 H        -8.9198962386        6.7623132824        4.0675546263
 H        -7.1691119706        6.3969093593        3.8149427699
 H       -13.9567307908        5.9207166512       -2.4767417676
 H       -14.5533936345        4.5966222227       -1.5404195656
 H       -12.8929376669        4.6424942662       -1.9532931043
 H       -14.5621887309        7.6931570739        0.0730404673
 H       -14.5704646789        6.6458885305        1.5543222058
 H       -15.6569278428        6.2313554916        0.1780050900
 H        -9.9259240845        1.8746051813        4.7054605792
 H       -11.4277776402        2.4356763767        4.1281152318
 H        -9.9687154078        3.6140111418        4.1258202877
 H        -8.3501947545        1.3087729893        1.4123006604
 H        -7.9783270879        1.6595883401        3.0939700887
 H        -8.2475821378        2.9518774835        1.8190379084
 H       -11.8669317214       -3.5120007331       -0.7401482197
 H       -10.8251772996       -3.4241310119        0.5710533691
 H       -11.4593444493       -1.8767444373        0.0040670439
 H       -14.2407815704       -3.6979335880       -0.3241359375
 H       -14.1954673943       -1.8540997731       -0.3187456133
 H       -15.0997683538       -2.7894290828        0.9607146316
 Na       -9.2903250871        5.1686199767       -0.9531121738
