117

 C       -14.0450760175       -4.5320700490        3.0906564659
 C       -12.9424801038       -4.0741698491        2.1277685793
 O       -11.7864875061       -4.4845970118        2.2873580166
 C       -13.2144040223       -2.8365017746        1.0997257562
 C       -12.8637815156       -1.5182091867        1.8865551163
 O       -13.3625014901       -0.4546750837        1.5935487133
 C       -11.7575690259       -1.6095855079        2.9460011886
 C       -11.2605213352       -0.2804506836        3.5111709468
 C       -10.5263104938        0.5262656620        2.4611811518
 O       -10.0361192137        0.0189937024        1.4707979897
 C       -10.1571872510        2.0618580257        2.6885294404
 C       -10.8154879563        2.8825960423        1.5638103495
 O       -10.2574409148        3.7982932287        0.9974679021
 C       -12.2383640275        2.3990779188        1.2010474005
 C       -12.8871180988        3.3119074198        0.1724795440
 C       -13.1778538480        4.7392341088        0.7629247209
 O       -13.2096987471        4.9542822543        1.9571763228
 C       -13.5785703342        5.8412109636       -0.3293287150
 C       -12.1391325067        6.4240879045       -0.5176044301
 O       -11.3324929476        5.7794536476       -1.1742049923
 C       -11.5518593867        7.4980180118        0.3977567298
 C       -10.3423893263        6.9566519243        1.2043811341
 C        -9.3287760198        8.0547850671        1.4227727923
 O        -9.3489323320        9.1943750418        1.0307546222
 C        -7.9313277224        7.5564731219        2.0660384762
 C        -7.2586669887        7.1494680255        0.7391264512
 O        -7.5067299290        6.0304601682        0.3400507881
 C        -6.2999463318        8.0734634874        0.0128208704
 C        -6.1411684085        7.7189622560       -1.5120470942
 C        -6.9444289485        8.6173788194       -2.4615457286
 O        -6.9359531468        9.8086475707       -2.3179633420
 C        -7.3359954500        7.9691838170       -3.8984522729
 C        -7.7960110054        6.5161246026       -3.6905515275
 O        -8.6591501404        6.2824804778       -2.8468863662
 C        -6.8987511536        5.3886889282       -4.2963816401
 C        -7.6700121890        4.0420585358       -4.0447995176
 C        -7.1446387239        3.3002740690       -2.8251093713
 O        -6.3400765644        3.7935843423       -2.0370947981
 C        -7.6536618588        1.7666977572       -2.4607481412
 C        -9.1768560465        1.7676941603       -2.0554132748
 O        -9.7120367107        2.7972559685       -1.6770855274
 C        -9.9267814819        0.4423206264       -1.7729321201
 C        -7.2728143484        0.7872060567       -3.5907148929
 C        -7.0038666185        1.3188237430       -1.0873836874
 C        -8.5510109216        8.8002059156       -4.3657557599
 C        -6.1021720803        8.1302846589       -4.8293922003
 C        -7.2360983459        8.7356125601        2.8499634255
 C        -8.0860599755        6.3671296570        3.0401603736
 C       -14.2065330373        5.2316402892       -1.6506105032
 C       -14.5759980575        6.8239691363        0.2557564000
 C       -10.5398385182        2.5861779204        4.1007255771
 C        -8.5598908389        2.0929885137        2.6779461405
 C       -12.2727806393       -2.8828804802       -0.0737845605
 C       -14.7024692342       -2.7990695211        0.6855347053
 H       -14.9300659220       -5.0162644090        2.6089385255
 H       -14.4368382767       -3.6729927058        3.5703985426
 H       -13.6173278551       -5.2766755151        3.7598327569
 H       -10.9723442921       -2.2830141538        2.5258993033
 H       -12.1764602445       -2.1897687965        3.8250039105
 H       -10.6024452512       -0.3359673525        4.3677793126
 H       -12.1281279026        0.3066078952        3.8848187645
 H       -12.7284112259        2.4072026129        2.2186234395
 H       -12.1705783630        1.3276642843        0.9507281172
 H       -13.8508794720        3.0206532815       -0.2088542975
 H       -12.2981390086        3.3774367598       -0.7624800075
 H       -12.3331298447        7.9743967462        1.0100576502
 H       -11.1398843445        8.2924879722       -0.2482254562
 H        -9.7587372247        6.2270542695        0.6419834096
 H       -10.6902543637        6.5842798242        2.1765367917
 H        -5.3966433430        7.9556109088        0.6531446281
 H        -6.6395611979        9.0292368214        0.0961053885
 H        -6.4277887385        6.6691319830       -1.6232635302
 H        -5.1517302703        7.9199856338       -1.8547234034
 H        -5.9575893987        5.4407615373       -3.7817741752
 H        -6.7893247927        5.5414583287       -5.3842787041
 H        -7.6928722009        3.4108093637       -4.9287208678
 H        -8.7217424062        4.2796688353       -3.8101335163
 H       -10.0903039169        0.3003413130       -0.6286094142
 H        -9.3887609304       -0.4479093555       -2.1634750328
 H       -10.8480494922        0.6121365435       -2.3197411909
 H        -7.9080935914        0.9174116811       -4.4293232221
 H        -7.5031122808       -0.2444870255       -3.2559113637
 H        -6.1778068754        0.8843106664       -3.8866784791
 H        -5.9554545438        1.1441600173       -1.2109673770
 H        -7.4954088864        0.4184044494       -0.8195655332
 H        -7.1820012071        2.1041732617       -0.3132995856
 H        -8.9955356199        8.5343899980       -5.3603507608
 H        -8.1985693396        9.8919309198       -4.5718103564
 H        -9.3065638289        8.7332610110       -3.6486949646
 H        -5.3182868544        7.4617052700       -4.5074926062
 H        -5.6715199220        9.1718604144       -4.8286907733
 H        -6.2981118217        7.8316964481       -5.8898940823
 H        -7.6906649542        8.8348046701        3.8100018810
 H        -7.4234933756        9.7148700020        2.3958136371
 H        -6.1413830076        8.5214550651        3.0056122048
 H        -8.5347508518        5.4211091282        2.7006399600
 H        -8.6056177805        6.7496973715        3.9362630150
 H        -7.0722261188        5.9439275999        3.3533536634
 H       -14.2445850344        5.9553141677       -2.4439309578
 H       -15.2439791215        4.9226119750       -1.3885189430
 H       -13.6335962143        4.4246678694       -2.0484696372
 H       -14.8197216522        7.6601402987       -0.4733206126
 H       -14.1744566669        7.3392558249        1.0304907723
 H       -15.5682461717        6.3301405124        0.4378043844
 H        -9.9805762743        1.9861824520        4.9009679251
 H       -11.5724898023        2.4776382993        4.3308398376
 H       -10.3185887233        3.6700402732        4.1964490859
 H        -8.2320909152        1.7156312531        1.6879681137
 H        -8.1082073408        1.5712337597        3.5029003227
 H        -8.2798292415        3.1361070888        2.6548644255
 H       -11.9587599870       -3.8799032109       -0.4377268770
 H       -11.3486819931       -2.4054279284        0.3273137192
 H       -12.6395130107       -2.2335932501       -0.8494380526
 H       -14.9762005406       -3.7291236241        0.1259282700
 H       -14.9591765875       -1.8692674079        0.1474325062
 H       -15.2943745498       -2.8706769112        1.6555815568
 Na       -9.1011172103        4.9069227660       -1.0118988595
