117

 C       -14.0162571621       -4.4780941408        3.2109084208
 C       -12.9644217759       -3.9731161593        2.2163783384
 O       -11.8941685705       -4.4855944593        2.1660102906
 C       -13.2524372676       -2.8160510561        1.2014000213
 C       -12.8270016261       -1.4769951947        1.8767740746
 O       -13.3493634439       -0.4154797007        1.5979296798
 C       -11.6878060467       -1.5978706405        2.9304754244
 C       -11.3308448321       -0.2190690041        3.4832833225
 C       -10.4344676511        0.5338083001        2.4626427421
 O       -10.0714724516       -0.0198094708        1.4615734141
 C       -10.1006538358        2.0440252584        2.7463988660
 C       -10.7587920209        2.8679975345        1.5711543246
 O       -10.1625387244        3.7756564869        0.9771104085
 C       -12.2303649391        2.5295898805        1.2096879843
 C       -12.8345960950        3.3868721202        0.1621699228
 C       -13.3338339097        4.7410096906        0.7237099958
 O       -13.3157227154        4.8697237135        1.8969997983
 C       -13.5900686839        5.8981328514       -0.3493359682
 C       -12.1176807776        6.3378662162       -0.5863550977
 O       -11.3787866853        5.6258106048       -1.2971047484
 C       -11.4698363561        7.6400948892        0.1892132101
 C       -10.4121764347        7.0613924663        1.1185424543
 C        -9.3212635343        8.1136269422        1.4959755067
 O        -9.5291284289        9.2381646813        1.1516247068
 C        -7.9123892889        7.5584289667        2.0534037313
 C        -7.2173658247        7.0352164613        0.7356402937
 O        -7.5595873854        5.9828575921        0.2707261135
 C        -6.2386800934        7.9861795080       -0.0243038734
 C        -5.9879735936        7.7824772444       -1.4976432328
 C        -6.7014853484        8.6403839813       -2.5455340073
 O        -6.9001558059        9.8441072053       -2.4498430890
 C        -7.3717641613        7.9876295531       -3.8183447257
 C        -7.7325599234        6.5156786516       -3.5335635920
 O        -8.7153761458        6.3129864800       -2.8234895529
 C        -7.0697219390        5.3332647794       -4.2772105971
 C        -7.7065152899        3.9029760995       -3.9837118874
 C        -7.1982685786        3.2425152060       -2.6514635942
 O        -6.4258894036        3.8436052287       -1.9516910740
 C        -7.6472093645        1.7460650528       -2.3538754847
 C        -9.2075975264        1.6866041265       -1.9909451126
 O        -9.7533192475        2.6803652447       -1.5887367726
 C       -10.0039677371        0.3798794908       -1.8973386711
 C        -7.0706983430        0.8348009862       -3.4415806506
 C        -6.8774574574        1.3557142430       -1.0645117589
 C        -8.5566906307        8.8297031890       -4.3528524783
 C        -6.2436523466        8.0381124076       -4.8860772099
 C        -7.1584063520        8.7203632018        2.7516938401
 C        -8.0054335746        6.3098622854        2.9899597124
 C       -14.1352580693        5.2387241528       -1.6028744648
 C       -14.5259532484        6.9496090951        0.2853223151
 C       -10.6578993172        2.6476076942        4.0349455684
 C        -8.5506690750        2.1526375185        2.7151763842
 C       -12.3476427869       -2.9382253271       -0.1417871399
 C       -14.7312513321       -2.7867107449        0.7761286389
 H       -14.8986348068       -4.8521960086        2.7043172806
 H       -14.4033062987       -3.5935063227        3.7882012382
 H       -13.5975621078       -5.3140039766        3.7935551125
 H       -10.8056269784       -2.0362161084        2.4639803409
 H       -11.9281176110       -2.3112091975        3.7807804625
 H       -10.7313766232       -0.3070283027        4.4626805239
 H       -12.1351932619        0.3895079053        3.7748613805
 H       -12.8637779186        2.4727561430        2.1029264257
 H       -12.1264358331        1.4856743022        0.8884747339
 H       -13.6902749665        2.9063602583       -0.3604663495
 H       -12.1853087391        3.5973545984       -0.6864664921
 H       -12.2481634228        8.1926676631        0.7604515449
 H       -11.0089396906        8.3087086990       -0.5368763334
 H        -9.8829995541        6.1838508708        0.7188827584
 H       -11.0108798670        6.8432705724        1.9932413579
 H        -5.3061802732        7.9516028379        0.5215940504
 H        -6.6797062037        8.9498988825        0.0964733676
 H        -6.1877763267        6.6846850360       -1.6942678913
 H        -4.9688565056        8.0005396203       -1.6375581062
 H        -6.0081580056        5.2879065813       -4.0370487803
 H        -7.2370965140        5.5387079594       -5.3517923206
 H        -7.4670504870        3.2858836259       -4.8860771831
 H        -8.8314134117        3.9238381619       -3.8946471452
 H       -10.0432693425        0.0068328593       -0.8706049095
 H        -9.5984925968       -0.3849256805       -2.5177604702
 H       -10.9665099278        0.7125793662       -2.3052561109
 H        -7.6386213932        0.9600447323       -4.3642271132
 H        -7.1569464488       -0.1833073331       -3.1472390292
 H        -6.0014814131        1.1163387653       -3.6293494213
 H        -5.7918533265        1.4272435368       -1.2448987068
 H        -7.1911428497        0.2508694141       -0.8853212106
 H        -7.1850857391        1.9658166876       -0.2512606290
 H        -8.7182141989        8.7262996905       -5.4336235605
 H        -8.2059530193        9.8501116673       -4.2860517660
 H        -9.5471441534        8.7101066587       -3.8239743889
 H        -5.3883573741        7.3775198292       -4.4176437378
 H        -5.8539481471        8.9724811406       -5.1114057718
 H        -6.4690028333        7.5078492163       -5.7838095750
 H        -7.6318044593        8.8436701235        3.7229509718
 H        -7.2990782794        9.6524238227        2.2967887939
 H        -6.1538341661        8.4773870171        2.9457815903
 H        -8.1639335666        5.3963874442        2.4500992727
 H        -8.6850464993        6.3728951133        3.8692133495
 H        -6.9706486863        6.0780433688        3.3673000259
 H       -14.2513350547        5.9413107175       -2.3664648328
 H       -15.1316108736        4.8477346920       -1.3694325343
 H       -13.4827464505        4.4403935982       -1.9163740900
 H       -14.6573137090        7.8794184081       -0.2765834152
 H       -14.1440496559        7.2892673027        1.2798322849
 H       -15.5081549609        6.5120879091        0.2943783843
 H       -10.4435258056        2.0722864145        4.9880480242
 H       -11.7537118986        2.7848560137        3.9507836057
 H       -10.2396107190        3.6617234004        4.1454018260
 H        -8.1880331774        1.5762196886        1.8338048292
 H        -8.1264017923        1.7147515704        3.6248877097
 H        -8.2383607562        3.1770603590        2.6241005215
 H       -12.3286509171       -3.9540614905       -0.5201759299
 H       -11.3215857104       -2.6264334794        0.0927909532
 H       -12.7733205546       -2.2479826054       -0.8908817934
 H       -14.9931731232       -3.6459429029        0.1024006106
 H       -14.8648611314       -1.8244285569        0.2771711146
 H       -15.3914396651       -2.8378056524        1.6412537527
 Na       -9.0532148186        4.8630549466       -1.0252008251
