117

 C       -13.9865085624       -4.2821894148        3.3861512241
 C       -13.0103123063       -4.0165808289        2.1883952086
 O       -11.9439321710       -4.6454464310        2.0211639353
 C       -13.3740888898       -2.8575116202        1.1790840366
 C       -12.8606397836       -1.4562395665        1.9143568172
 O       -13.3139321104       -0.3742676715        1.6110756951
 C       -11.7372647488       -1.5406877636        2.9860373455
 C       -11.2816213297       -0.1755028548        3.4989535343
 C       -10.4760201720        0.6235039077        2.4509039133
 O        -9.9520698713        0.0805504170        1.4706845720
 C       -10.0985962636        2.1018895548        2.7800071939
 C       -10.5940901314        2.8963713818        1.5333032160
 O        -9.9518785159        3.7067189638        0.9328576751
 C       -12.0756669218        2.5554887702        1.1592815225
 C       -12.7534830778        3.4542727882        0.1889679904
 C       -13.3403540858        4.7856248763        0.6450511325
 O       -13.6744314333        4.8310747881        1.8208282609
 C       -13.5256350279        5.9747863437       -0.4281248291
 C       -11.9408165847        6.3058770456       -0.7653339536
 O       -11.4120067458        5.4835212181       -1.4649296453
 C       -11.1712834514        7.4883044542       -0.1880306500
 C       -10.5151927161        7.1963494659        1.2307358650
 C        -9.3998957344        8.1456896503        1.5156245090
 O        -9.5678734093        9.3320440400        1.6417685237
 C        -7.9668931935        7.5485284928        1.7720242359
 C        -7.2450221121        7.1564149518        0.4753811431
 O        -7.3831155543        6.0738628508       -0.0671766013
 C        -6.2089170636        8.1321166780       -0.0952852767
 C        -5.7759976619        7.6820558889       -1.5841309566
 C        -6.5780171232        8.4965076016       -2.6017651825
 O        -6.6510976546        9.6725283300       -2.3708969697
 C        -7.3165465714        7.8346822254       -3.8289406380
 C        -7.8965801035        6.4551382673       -3.4437782243
 O        -8.7628238607        6.4444807005       -2.5985012345
 C        -7.3760571482        5.1561868988       -4.2128578458
 C        -7.8493261589        3.7573290765       -3.8096976294
 C        -7.2723237728        3.2606079657       -2.4611138420
 O        -6.7528319754        4.0556777851       -1.6734382423
 C        -7.5072025100        1.8085978818       -2.0838218775
 C        -9.0084647211        1.5666128358       -1.8821542326
 O        -9.7943911901        2.4801740526       -1.6192701961
 C        -9.6937625371        0.2367960412       -2.3366790866
 C        -7.1266296880        0.8589332037       -3.2391417766
 C        -6.7781985601        1.4112857717       -0.7477452737
 C        -8.5311112868        8.6923213707       -4.2568654072
 C        -6.2895364599        7.7719432631       -4.9485263514
 C        -7.1565012108        8.6907790610        2.4938002356
 C        -8.1553487151        6.3636818001        2.7579753171
 C       -14.2916903896        5.5519687198       -1.7425241020
 C       -14.2244891572        7.0833171842        0.3134352569
 C       -10.7458372299        2.6631655194        4.0323625358
 C        -8.5385527400        2.3442957024        2.8061317078
 C       -12.5681248539       -3.0814040206       -0.0985474257
 C       -14.8601342831       -2.5979103759        0.9962444935
 H       -14.9074708681       -4.7345611622        2.9293984326
 H       -14.2975267249       -3.3794206814        3.8541944241
 H       -13.6019067923       -5.0673494972        4.0358343285
 H       -10.8646978118       -2.0621169926        2.5867813443
 H       -12.0214871874       -2.1393523304        3.7907424534
 H       -10.8170691703       -0.2617605153        4.4293621051
 H       -12.1311505956        0.5712591219        3.7032779880
 H       -12.7073083326        2.4864510854        2.0578330479
 H       -11.9788338363        1.5175539769        0.8512482445
 H       -13.5943249741        2.9634784379       -0.2625451134
 H       -12.2624537029        3.7487257075       -0.7282038044
 H       -12.0148919606        8.1724420247       -0.1597105361
 H       -10.3497771596        7.7346441391       -0.8931996430
 H       -10.0685349428        6.2077213665        1.2998471382
 H       -11.3201781254        7.3715859002        1.9782563424
 H        -5.2848235393        8.1059035922        0.5638384163
 H        -6.7157694166        9.1307694489       -0.0312711943
 H        -5.9374287804        6.6195409447       -1.6445654208
 H        -4.6465246241        7.9054111812       -1.6377574817
 H        -6.2645581251        5.1301771461       -4.2108337209
 H        -7.7941443355        5.3126584023       -5.2168357850
 H        -7.6022208436        3.0958528232       -4.6335418206
 H        -8.9174719780        3.6967200967       -3.6629115944
 H        -9.2438565185       -0.5257362095       -1.6914659713
 H        -9.4010144264       -0.0750905593       -3.3218298771
 H       -10.7237988169        0.3350065738       -2.3083865723
 H        -7.7490681134        1.0570031225       -4.0804573898
 H        -7.2223752032       -0.1781251237       -2.8652639628
 H        -6.1141850606        1.0248848573       -3.5599307619
 H        -5.7934392631        1.8670265769       -0.7850073460
 H        -6.7324031699        0.3860627507       -0.6534495654
 H        -7.3778312663        1.8759299562        0.1034938360
 H        -8.8466964838        8.3886724195       -5.2673712503
 H        -8.4542130205        9.8238307116       -4.0876394597
 H        -9.2996246914        8.4028559168       -3.6375481508
 H        -5.3693885572        7.4060456447       -4.7781812798
 H        -6.1709941961        8.8635211387       -5.1840898861
 H        -6.6887320399        7.2652259933       -5.8339630275
 H        -7.4679818310        9.0072552895        3.4495965537
 H        -7.0875813168        9.5950867870        1.8684123675
 H        -6.1379521179        8.2647523041        2.6930933636
 H        -8.3969088960        5.4114417139        2.2812185365
 H        -8.9012439400        6.6120213751        3.4522723154
 H        -7.3164920069        6.1951972817        3.3947113801
 H       -14.8843619164        6.4623527141       -2.0367934043
 H       -15.0495241770        4.7689865452       -1.5937212583
 H       -13.5847645026        5.1441704051       -2.4661255486
 H       -14.0180659550        8.0540381962       -0.1571568743
 H       -13.9259454320        7.1410967381        1.3001360462
 H       -15.3337672023        7.0031678295        0.2535264873
 H       -10.3921545694        2.0675289526        4.8690870455
 H       -11.8067778916        2.6966184729        3.9839846191
 H       -10.3278506945        3.6197055053        4.3552398426
 H        -7.9874634191        1.7052407087        2.1250731552
 H        -8.1914726799        2.0866581521        3.8088581616
 H        -8.3853859047        3.4426289857        2.7363786025
 H       -13.1572618429       -3.7588265354       -0.7413568079
 H       -11.5860066182       -3.4643651718        0.1635225350
 H       -12.5109335946       -2.1946902956       -0.6923067326
 H       -15.3408807435       -3.4313166397        0.6110365051
 H       -15.0448534434       -1.7485723720        0.3956852595
 H       -15.2172952563       -2.3771869268        1.9905207398
 Na       -9.1800319011        4.6888919396       -1.0344469275
