117

 C       -13.9412649299       -4.2689164684        3.4114005734
 C       -13.0853930189       -3.9916083584        2.2348529204
 O       -12.1358543886       -4.7034124294        2.0588418850
 C       -13.3690697745       -2.7730903668        1.2706132485
 C       -12.7806942892       -1.4754039515        1.8885856600
 O       -13.3197384144       -0.4472143467        1.5610964415
 C       -11.7244736410       -1.5491250344        2.9566948658
 C       -11.2362304528       -0.1857252813        3.4711280248
 C       -10.3339371779        0.6010644775        2.4996325179
 O        -9.8849722862        0.1059673903        1.5080315335
 C       -10.0678706912        2.1825110080        2.8716852850
 C       -10.6751131740        3.0087049620        1.5586550235
 O        -9.8867578448        3.7128935359        0.9268494209
 C       -12.0982455595        2.5921555624        1.0756131610
 C       -12.7954763129        3.3849992452       -0.0389778184
 C       -13.3811675750        4.7744932828        0.5631592382
 O       -13.8106761128        4.8917300192        1.6447388014
 C       -13.3838900122        6.0816899705       -0.4047207549
 C       -11.9220093265        6.2660670555       -0.8431188375
 O       -11.3804427619        5.4252983040       -1.5577950156
 C       -11.0348615134        7.4689883799       -0.3027128543
 C       -10.6227253838        7.2078864287        1.1520705032
 C        -9.4641672791        8.2543000254        1.5578087548
 O        -9.7028503443        9.3927012359        1.7895832947
 C        -7.9482609354        7.6122041818        1.7064699607
 C        -7.1761725768        7.1823946477        0.3564729656
 O        -7.4838584088        6.1497386252       -0.1743562302
 C        -6.1143822859        8.0867405728       -0.2008027149
 C        -5.6872502351        7.5579143325       -1.6023249056
 C        -6.5599236452        8.3806240229       -2.5606637171
 O        -6.6400319337        9.6118865413       -2.5112219097
 C        -7.3687931230        7.7350040419       -3.8403076648
 C        -7.8563253219        6.4055565623       -3.3955807203
 O        -8.6910523408        6.3441109834       -2.5011819695
 C        -7.4387502314        5.2053843567       -4.2057777933
 C        -7.9936231499        3.8518855979       -3.6802422658
 C        -7.3201149186        3.3466251025       -2.3522331682
 O        -6.8600562567        4.1249235113       -1.5512346095
 C        -7.4945139450        1.7547502740       -2.0656231577
 C        -9.0526595659        1.5372980719       -1.9985229972
 O        -9.8271283366        2.3640358223       -1.6035210065
 C        -9.5486071777        0.1093451836       -2.3944910527
 C        -6.8781248339        0.7745936418       -3.1532235567
 C        -6.8416442947        1.4592399308       -0.6675748437
 C        -8.5364610576        8.6976937236       -4.1837050890
 C        -6.2980410181        7.6373114262       -4.9939528655
 C        -7.1432065031        8.6994406905        2.4917313031
 C        -8.1773512461        6.3274542526        2.5937003943
 C       -14.2441116399        5.6792891952       -1.6115359634
 C       -14.0524962373        7.2500792891        0.3293544039
 C       -10.7126090827        2.6921841911        4.1178569647
 C        -8.5219924986        2.3404781905        2.9583908818
 C       -12.6993409422       -2.9950746059       -0.1506699484
 C       -14.8873512446       -2.5596275395        1.1371952786
 H       -14.8636781807       -4.8043625427        3.1963621904
 H       -14.1862876404       -3.3284755993        3.8400934433
 H       -13.3625817207       -4.9087723506        4.0668567683
 H       -10.9029098705       -2.2210663074        2.6868186949
 H       -12.1892658679       -2.0747520195        3.8246676643
 H       -10.7429750676       -0.3371534875        4.4317600488
 H       -12.0448673999        0.5063872813        3.7348562332
 H       -12.7475369656        2.4899168531        1.9912919423
 H       -11.8297973980        1.5357434701        0.8377946156
 H       -13.5823887371        2.8519630381       -0.5123930842
 H       -12.2412157164        3.6917158805       -0.9166934074
 H       -11.5664081197        8.4077626540       -0.5046761151
 H       -10.1211373702        7.2620999554       -0.8364010190
 H       -10.3179272500        6.1704071448        1.3437138159
 H       -11.4604233828        7.5089553555        1.8121030663
 H        -5.1980775690        8.2103516551        0.4698052886
 H        -6.5912802348        9.0041186412       -0.2597012213
 H        -5.9087430320        6.4597501645       -1.7291851902
 H        -4.6447462108        7.7372529554       -1.6906623791
 H        -6.3710384827        5.1647923569       -4.2344335859
 H        -7.9008894650        5.4315437006       -5.1938460427
 H        -7.9626608891        3.0993491751       -4.4297189647
 H        -9.0247076063        3.9752311455       -3.4142278861
 H        -8.7251209558       -0.6413036559       -2.1804677403
 H        -9.6421794858        0.0946927432       -3.4784188103
 H       -10.5699372807       -0.0759239412       -2.0121219059
 H        -7.4314406830        0.8781227072       -4.0403615359
 H        -6.8293584591       -0.2343753953       -2.7664219984
 H        -5.8085505394        1.0964784819       -3.4304027036
 H        -5.9116681299        1.9000197245       -0.8038404397
 H        -6.7681431051        0.3921155889       -0.4037310336
 H        -7.3689291731        2.0086434313        0.0636175190
 H        -8.9981590575        8.2555837091       -5.0871414002
 H        -8.1390809702        9.7338625565       -4.3583461173
 H        -9.3057505608        8.8455022460       -3.4208927595
 H        -5.3757010672        6.9928954495       -4.6433605689
 H        -5.8496355082        8.5792625727       -5.2141349366
 H        -6.6644095006        7.1716372679       -5.9092249556
 H        -7.5331709542        8.9981174247        3.4912341698
 H        -7.0750216613        9.6316390944        1.8666947900
 H        -6.1015370993        8.3306896088        2.7605536145
 H        -8.6079151320        5.5387312136        2.0249475474
 H        -8.8297128111        6.5503461942        3.4292631913
 H        -7.2729661132        5.9607451930        3.1560055750
 H       -14.8364363879        6.5302330507       -1.8763920110
 H       -15.0312152834        4.8732033546       -1.3413822951
 H       -13.6412308565        5.2051789336       -2.3709511764
 H       -14.0018218501        8.2109842715       -0.2438920144
 H       -13.6510230036        7.3807544482        1.3077790940
 H       -15.1238770239        7.0571110112        0.5050095739
 H       -10.1099015973        2.2439518806        4.9457966742
 H       -11.7216368492        2.4661302092        4.1825540413
 H       -10.5372700038        3.7031655390        4.3799209172
 H        -8.0458403956        1.6901352168        2.1834945713
 H        -8.1693663719        1.9331549066        3.8883341413
 H        -8.2605499063        3.3769979574        2.9793866854
 H       -13.4220588675       -3.3993417898       -0.8485695669
 H       -11.7793736270       -3.5859250436        0.0071368576
 H       -12.4689574292       -2.0559557880       -0.6194893518
 H       -15.1901589199       -3.5750871960        0.8508035012
 H       -15.1804134579       -1.8872200920        0.3711091578
 H       -15.3458104496       -2.2346413130        2.0709740257
 Na       -9.2876377008        4.6721962247       -0.9952323590
