117

 C       -13.9520698185       -4.1941232759        3.6801831262
 C       -13.2297882760       -3.9572517539        2.3628822066
 O       -12.3750087965       -4.6812652959        1.9219844576
 C       -13.5210878832       -2.6882912575        1.4097187078
 C       -12.7425665092       -1.4217267012        1.8746690539
 O       -13.1267672375       -0.3280771145        1.5721464907
 C       -11.5159370232       -1.6122537199        2.8278182899
 C       -11.1705052270       -0.3385985293        3.5155351746
 C       -10.3431454623        0.5566318020        2.6162527883
 O        -9.7094323030        0.0473412634        1.7283038693
 C       -10.1714289765        2.2146542825        2.8914020934
 C       -10.7295654042        3.0171206496        1.7651303888
 O       -10.1075741830        3.9287155163        1.2362293510
 C       -12.1560225555        2.7010793707        1.2279037052
 C       -12.5700614225        3.5774203731        0.0750091612
 C       -13.3226074054        4.8602415463        0.4636548597
 O       -13.9248749224        4.8972523535        1.4875722137
 C       -13.2271065092        6.0805223948       -0.4157020752
 C       -11.7511030359        6.3255140946       -1.0109434146
 O       -11.3671780530        5.6056101712       -1.8921720542
 C       -10.8413883873        7.4882755412       -0.5486521820
 C       -10.4603047174        7.2270138082        0.9291108776
 C        -9.3735404583        8.2483192449        1.5289217491
 O        -9.7006538828        9.3338746439        1.8484241989
 C        -7.9775006074        7.6932526949        1.8026209622
 C        -7.3626979775        7.2100513702        0.3860210477
 O        -8.0432914989        6.4991262202       -0.3049671744
 C        -6.1261886173        7.8157019369       -0.1537704084
 C        -5.7994078193        7.5671188714       -1.6137614576
 C        -6.5232817489        8.3413789653       -2.6749999094
 O        -6.4223853141        9.5689102403       -2.6023608764
 C        -7.2042086251        7.6273920758       -3.9392969955
 C        -7.8924245020        6.3481872518       -3.5259860360
 O        -8.7495493744        6.3036463450       -2.6515697077
 C        -7.5053619209        5.0011497431       -4.2280875851
 C        -8.1571848559        3.7452691305       -3.6650105477
 C        -7.4384585917        3.2793179850       -2.3507127696
 O        -6.7994738856        4.0955033410       -1.7113266956
 C        -7.4618692649        1.7803040317       -1.9145008652
 C        -8.9377300265        1.1861696069       -2.0257923054
 O        -9.8090788700        1.9934746417       -1.7550120684
 C        -9.3480181545       -0.2233140698       -2.4328176818
 C        -6.4279873589        1.1031301473       -2.9040726833
 C        -7.1180660848        1.4943042892       -0.4325515322
 C        -8.4429961704        8.4966415406       -4.3884163954
 C        -6.2252456267        7.5293491927       -5.1493703422
 C        -7.1625257237        8.8114237944        2.4748697835
 C        -7.9325209094        6.3922190419        2.6931903546
 C       -14.1728815928        5.9451677647       -1.6514780410
 C       -13.7695353668        7.3332450669        0.3045558330
 C       -11.0041914882        2.6417733926        4.1604070126
 C        -8.6303038671        2.4748548981        3.0494469209
 C       -12.9364824783       -2.9830290076       -0.0493650187
 C       -15.0899772755       -2.4548036373        1.3714365334
 H       -14.9227913855       -4.6909636130        3.3278903192
 H       -14.1857324945       -3.2605030686        4.1465531068
 H       -13.4376242130       -4.9129409093        4.3580335274
 H       -10.7103901349       -2.0621239231        2.2488147393
 H       -11.7454003889       -2.3258307350        3.5586255658
 H       -10.6396404125       -0.4274617849        4.4177683428
 H       -12.1723024476        0.1860777639        3.7629818265
 H       -12.7047364210        2.8121843014        2.1661524036
 H       -12.3452025819        1.7148287659        0.8772420185
 H       -13.1020116250        2.9954462752       -0.6885014423
 H       -11.6603957586        3.8235323621       -0.5161056825
 H       -11.5051444249        8.3571134744       -0.6187530361
 H        -9.9609780579        7.4286267943       -1.2203869273
 H        -9.9234299427        6.3002396643        1.0298601644
 H       -11.3107500672        7.1231037180        1.6369616721
 H        -5.3052591458        7.4360094032        0.5721769391
 H        -6.2100727148        8.8889775842        0.0570972732
 H        -5.9779212344        6.5160866636       -1.8581658290
 H        -4.6826047299        7.6794378193       -1.8065364167
 H        -6.3968662416        4.9373601634       -4.1804819877
 H        -7.8353176994        5.1079643134       -5.2803171464
 H        -8.2156357666        2.9180183827       -4.4145608075
 H        -9.2276193934        3.9924707607       -3.4323102030
 H        -8.6117291367       -0.6846807593       -3.1138234993
 H       -10.2941106112       -0.1164674036       -2.8376426526
 H        -9.5029037104       -0.7736419135       -1.5574879368
 H        -6.6345515253        1.3326227260       -3.8950431986
 H        -6.4270829490        0.0416787727       -2.6645001441
 H        -5.3794518777        1.4241602385       -2.6929472696
 H        -6.0379359784        1.6276264706       -0.2861322216
 H        -7.4261627983        0.4549656468       -0.2664057683
 H        -7.7699675241        2.1611573660        0.2146109676
 H        -8.8965495351        7.8967694384       -5.1529284717
 H        -8.1361651694        9.5449356341       -4.6530044780
 H        -9.0954311428        8.6606527260       -3.6123548813
 H        -5.3110859461        6.9441899112       -4.9559916329
 H        -5.9321546228        8.5401295773       -5.3552776931
 H        -6.7117800142        7.1412010090       -6.0177895149
 H        -7.4697758755        9.0344619045        3.4265639987
 H        -7.1892846347        9.6881043761        1.8924581881
 H        -6.1131874417        8.5458919547        2.5201213574
 H        -8.5713585844        5.5845703152        2.3592110136
 H        -8.2385962727        6.6269305224        3.6918242216
 H        -6.8888928049        6.0870523229        2.8625306262
 H       -13.8304532742        6.6155823849       -2.4198938328
 H       -15.1918468195        6.2861176691       -1.3341371566
 H       -14.2738353551        4.9502511803       -1.9684636693
 H       -13.7290889593        8.1596746631       -0.4025284644
 H       -13.2678836727        7.5217409938        1.1801520342
 H       -14.7618163703        7.2387205447        0.7269422229
 H       -10.7708724019        2.1076127075        5.1286344768
 H       -12.0500829388        2.6546332254        3.9578056379
 H       -10.7602617225        3.6850979004        4.4738362239
 H        -8.2211092993        2.2401725312        2.0455929679
 H        -8.0726306461        1.8150346506        3.6830063755
 H        -8.4681419037        3.5145670804        3.3321006065
 H       -13.4004843196       -3.8674288935       -0.5211899286
 H       -11.8436158671       -3.0487347023        0.0412585201
 H       -13.1836382877       -2.2066669528       -0.7245629570
 H       -15.5541518642       -3.2326900675        0.7833949366
 H       -15.3030328681       -1.5058932793        0.9263932877
 H       -15.4817193574       -2.3688167367        2.4035266420
 Na       -9.4119035444        4.4775057082       -0.9688394291
