117

 C       -14.0696938445       -3.9480221135        3.8728582389
 C       -13.4236667974       -3.7675733817        2.5036093237
 O       -12.6684541361       -4.6287269541        2.0854511272
 C       -13.6354661485       -2.4999394101        1.6192249545
 C       -12.7642676300       -1.3112886415        2.0771811715
 O       -13.2291439446       -0.2096312794        1.8341239376
 C       -11.3482752930       -1.5645388860        2.5674868305
 C       -10.8760506828       -0.4198853012        3.5076631392
 C       -10.4092910029        0.7255430775        2.5739535888
 O        -9.7519646142        0.5061786007        1.5596226634
 C       -10.5726463907        2.3150373157        3.0112657694
 C       -10.9386049670        2.9992919686        1.6321247827
 O       -10.0750384923        3.3421211792        0.8640414812
 C       -12.4717288633        2.9146459618        1.3498389132
 C       -12.9793121544        3.7223006187        0.1933523121
 C       -13.3428728482        5.1666432535        0.6540440859
 O       -13.4487376489        5.4419651955        1.8027242971
 C       -13.4217809745        6.2022107629       -0.4842398538
 C       -11.9170239589        6.4573535632       -0.7956834215
 O       -11.2132949949        5.6226312894       -1.3417521280
 C       -11.1345790655        7.6730389861       -0.1728960415
 C       -10.5920792852        7.2868935555        1.2159806373
 C        -9.4544581911        8.2447604452        1.6171588015
 O        -9.6278125124        9.4090816389        1.7199958737
 C        -7.8938235879        7.7390564408        1.7702743174
 C        -7.4144363683        6.9625247366        0.5097081495
 O        -7.9000952169        5.9118342054        0.1595644743
 C        -6.2118630636        7.5266830542       -0.3514895221
 C        -5.9417429065        7.0151719057       -1.7757965616
 C        -6.6221161525        7.9697763256       -2.7928993010
 O        -6.9415829663        9.1597940135       -2.6653219095
 C        -7.0109588694        7.3078075979       -4.2901114389
 C        -7.5277711948        5.8804540361       -4.0470984288
 O        -8.4945756980        5.7043741541       -3.3370816880
 C        -6.8486882077        4.6796710111       -4.6491315071
 C        -7.3397322067        3.3487390363       -4.0831497867
 C        -7.0644280158        3.1766963742       -2.5497131960
 O        -6.7313331527        4.1274123805       -1.8407946523
 C        -7.3199499812        1.7719208837       -1.9012835465
 C        -8.8076120512        1.5104914752       -2.0297936373
 O        -9.5677812194        2.4791936664       -1.9157164078
 C        -9.2340036451        0.0839462687       -2.1467131220
 C        -6.4273422456        0.6713729107       -2.5565035088
 C        -7.0164090184        1.9328042222       -0.3652791908
 C        -8.3087841456        8.1394896581       -4.8654796971
 C        -5.8083505738        7.3892356706       -5.1943578233
 C        -6.9949118965        8.9618012286        2.0808459589
 C        -7.8283113290        6.8652496888        3.0294615496
 C       -14.1715850641        5.4377811665       -1.6698840259
 C       -14.2094066899        7.4300848829        0.0200106649
 C       -11.6677938258        2.4880255018        4.0322006541
 C        -9.2244767945        2.7836566172        3.5349365689
 C       -13.3087409886       -2.8420777126        0.1270198048
 C       -15.1130276836       -2.0022859979        1.7079760138
 H       -15.0692043653       -4.3197709375        3.7650492199
 H       -14.0420845695       -2.9735697480        4.4159645776
 H       -13.3803142282       -4.6075348088        4.4135462352
 H       -10.7493930900       -1.7685843157        1.7255249587
 H       -11.3361568532       -2.4554040159        3.1993813643
 H       -10.0296607650       -0.8195889776        4.1355831100
 H       -11.6667293476       -0.0754239064        4.0887658927
 H       -13.0000721658        3.2821292656        2.2382133771
 H       -12.6537749615        1.8136724035        1.2302859266
 H       -13.9381714747        3.3627256627       -0.1385674682
 H       -12.2704445124        3.7444982207       -0.5997717061
 H       -11.7120278426        8.5992650121       -0.1048550279
 H       -10.4509478208        7.9564038295       -1.0026421300
 H       -10.2399631700        6.2321047786        1.3251145860
 H       -11.4038066581        7.3704420812        1.9673655235
 H        -5.3182487882        7.3654893292        0.1645370078
 H        -6.3225135611        8.6777308769       -0.3618195587
 H        -6.3134033959        6.0103754435       -1.9790148448
 H        -4.8439259046        6.9080786159       -1.9019566499
 H        -5.7801213793        4.9384524835       -4.5792437443
 H        -7.0090981671        4.7155498602       -5.7370657477
 H        -6.9588900836        2.5007292971       -4.6380220601
 H        -8.4091351956        3.2957804562       -4.2303926486
 H        -9.5684525234       -0.0339424466       -3.1547703264
 H       -10.0408587763       -0.0899215710       -1.4430442744
 H        -8.3930831616       -0.5255445204       -2.0468126641
 H        -6.6724613617        0.5222761264       -3.6412777029
 H        -6.5875229813       -0.3266641018       -2.1420964769
 H        -5.4397715239        0.9207625419       -2.4272679305
 H        -5.9104628461        2.0490287941       -0.2900408508
 H        -7.3881797821        1.1642657809        0.2134239257
 H        -7.4620985439        2.9405098651       -0.1308477990
 H        -8.6867248541        7.5596858318       -5.7210009895
 H        -8.0085823276        9.0933104267       -5.3414487250
 H        -9.0438188068        8.1206450189       -4.1301107307
 H        -5.0041278273        7.0194510504       -4.7288006198
 H        -5.6781086084        8.4892581201       -5.4339786570
 H        -6.0179406226        6.8376633768       -6.1246041263
 H        -7.2420957002        9.4249784689        2.9964129260
 H        -7.0469424972        9.7510987632        1.3528700553
 H        -5.9795742098        8.6403370725        2.1050521660
 H        -8.5898064179        6.0774440773        2.9665573514
 H        -8.1125621659        7.4925539489        3.8667984621
 H        -6.9305117620        6.3715925523        3.1609991091
 H       -14.5672435999        6.1301862808       -2.4503952616
 H       -14.9538306524        4.9537209507       -1.1941104843
 H       -13.5155483124        4.8058585433       -2.2849003393
 H       -14.1990255286        8.3152701163       -0.6143476749
 H       -13.8609792683        7.7231222057        0.9320442911
 H       -15.2866919212        7.1026018796        0.0392329783
 H       -11.2634940130        2.2970688416        4.9685305298
 H       -12.5388308293        1.8030926705        4.0968999332
 H       -12.0968636004        3.4886216663        4.0459062852
 H        -8.4348645253        2.9585061804        2.8650505015
 H        -9.0088083786        2.2018940084        4.4518946673
 H        -9.4234216236        3.8156759373        3.9025628043
 H       -14.1159954990       -3.3898690612       -0.3219892281
 H       -12.5614729817       -3.5976713358        0.0791081452
 H       -12.9388585118       -1.9985672060       -0.4618731781
 H       -15.7211293739       -2.8370606422        1.4724037837
 H       -15.2732532127       -1.2820387656        0.9065016319
 H       -15.4803945970       -1.6527212455        2.6406131296
 Na       -9.1275927312        4.6046223466       -1.1254138277
