117

 C       -14.0701982722       -3.8664237355        3.9254243310
 C       -13.4108239931       -3.7703510969        2.5678305734
 O       -12.6772380313       -4.5873875602        2.1363687711
 C       -13.7219126865       -2.4819604223        1.5961959607
 C       -12.8117059405       -1.2543125643        2.0331763302
 O       -13.1456913491       -0.1068572336        2.0249305851
 C       -11.4146234765       -1.6076779439        2.6110296448
 C       -10.8513415589       -0.3388932265        3.4169697270
 C       -10.3595919366        0.7830907762        2.5403090446
 O        -9.7573798496        0.6323400124        1.4851057663
 C       -10.6228394603        2.2893076239        3.0415740596
 C       -11.0404271681        2.9097784647        1.5620365825
 O       -10.2167134848        3.3333136004        0.8175368248
 C       -12.5216672735        2.8763752694        1.3905023203
 C       -13.0623641729        3.6970295247        0.2336469819
 C       -13.2889768441        5.1093050203        0.7027578144
 O       -13.3246933087        5.4915217379        1.8528123563
 C       -13.4411789685        6.2059930665       -0.4806072143
 C       -11.8478991863        6.4938220984       -0.8104359503
 O       -11.2029536526        5.5872987851       -1.2711803034
 C       -11.2169478419        7.7093450996       -0.1653973034
 C       -10.4854242982        7.2704815460        1.1258584863
 C        -9.3308364792        8.3395612216        1.5261472670
 O        -9.6155826731        9.5047551261        1.7968673800
 C        -7.8798465860        7.7729239847        1.8110768174
 C        -7.3572843775        6.9864303545        0.4437750062
 O        -7.8949341604        5.9172590354        0.1940920127
 C        -6.2374589198        7.6372823147       -0.3194123569
 C        -6.0876862548        7.0992444244       -1.7648658715
 C        -6.7895390699        7.8931041867       -2.8600039856
 O        -7.0714645672        9.0295064689       -2.6286796983
 C        -7.0190536212        7.2483105862       -4.3280237178
 C        -7.4352896435        5.7965503573       -4.0248408380
 O        -8.4030792129        5.5168659068       -3.3502622691
 C        -6.6337505630        4.5575916526       -4.7243710902
 C        -7.1672981077        3.2281691260       -4.1206733398
 C        -6.9201362542        3.1600865290       -2.5797026745
 O        -6.5460123627        4.1190220110       -1.9338916291
 C        -7.2500433360        1.8458609220       -1.8712204607
 C        -8.8162927754        1.4832593922       -1.9289648713
 O        -9.5745734698        2.4350540414       -1.9681951880
 C        -9.4184446282        0.0998787092       -2.0605193060
 C        -6.5438783408        0.6581605499       -2.6076911193
 C        -6.9775014528        1.9196663931       -0.3324225117
 C        -8.2230016253        8.0232759844       -4.9168119340
 C        -5.7507624497        7.4452974548       -5.1557592712
 C        -6.9630312112        8.9489389516        2.0244430608
 C        -7.9671576841        6.9098003274        3.0907836405
 C       -14.2756377877        5.5476366227       -1.6551916651
 C       -14.2566152080        7.4128929842       -0.0853838498
 C       -11.7222143272        2.3196973647        4.0739901617
 C        -9.2946090049        2.8212795386        3.4731166604
 C       -13.2950742369       -2.8314401042        0.1567342236
 C       -15.1835810588       -1.9971037979        1.7323251907
 H       -15.0985758812       -4.1853832699        3.6382891368
 H       -14.1450086237       -2.9151536010        4.3432674928
 H       -13.5231556002       -4.5271636316        4.5824717548
 H       -10.7715946145       -1.8751244023        1.7364231690
 H       -11.3622268658       -2.4464145541        3.3019511315
 H        -9.9468474807       -0.7039374773        3.8249728122
 H       -11.5142694329        0.0451965166        4.2468283648
 H       -12.9934515575        3.1406683631        2.3521287000
 H       -12.6827548320        1.7753460701        1.1805154509
 H       -14.0557480561        3.3863023381       -0.0676289973
 H       -12.3447005384        3.7128511070       -0.5918376057
 H       -11.9462408269        8.5062208937       -0.1050081279
 H       -10.6180943081        8.1835377672       -0.9535057392
 H        -9.9469731378        6.3306644075        0.9217018133
 H       -11.1477918916        7.0202888169        1.9829939209
 H        -5.3308237077        7.4513330657        0.1965144028
 H        -6.3995217822        8.7186648655       -0.2766264280
 H        -6.4211860626        6.1152818394       -1.7801194211
 H        -5.0000984338        6.9682025121       -1.9779278295
 H        -5.5409881744        4.7316093827       -4.7225715526
 H        -6.8680604139        4.6178925109       -5.7684214867
 H        -6.6079880386        2.4102732544       -4.5274407493
 H        -8.1702812124        3.0307677708       -4.4016607942
 H        -9.6402515947       -0.0713989040       -3.1668443912
 H       -10.3087841960        0.1324454970       -1.4793452734
 H        -8.6572868975       -0.6044232268       -1.7895896949
 H        -6.7986815966        0.5738836556       -3.6239883166
 H        -6.8702013813       -0.3114976185       -2.2144204727
 H        -5.4436744785        0.7252253629       -2.5043361945
 H        -5.9657921282        1.8957989812       -0.0830551746
 H        -7.4770040041        1.0481825730        0.0744053771
 H        -7.4261548114        2.8343469938        0.0076548604
 H        -8.6379488183        7.5566887007       -5.8150512277
 H        -7.7714410252        8.9697414331       -5.3272955775
 H        -8.9656144866        8.0361443892       -4.1634433015
 H        -4.8488979271        6.9879518886       -4.5739094227
 H        -5.5909685303        8.4761146546       -5.3677860317
 H        -5.9372260735        6.8575042359       -6.0649788033
 H        -7.2892776019        9.5443395364        2.8483107631
 H        -7.0561424602        9.6775263482        1.2007790138
 H        -5.8702560159        8.7033830308        2.1914541692
 H        -8.6986422630        6.1218553527        2.9714192623
 H        -8.1860841827        7.4944066967        3.9376579830
 H        -7.0374636102        6.3964098627        3.1859852190
 H       -14.3937984257        6.2533174747       -2.5006780421
 H       -15.3039907595        5.3494925357       -1.2017161564
 H       -13.8089146604        4.7066916928       -2.1320000456
 H       -14.1842732155        8.2616564787       -0.7878081584
 H       -13.8169866444        7.8312914882        0.7994073892
 H       -15.3262986384        7.1637259382       -0.0284337710
 H       -11.3519851541        1.9949573406        5.0512144556
 H       -12.5707959212        1.7277297108        3.9686557641
 H       -12.1095388737        3.3412366437        4.2173904239
 H        -8.6216505735        2.9521119857        2.6206963086
 H        -8.9209551125        2.2751125279        4.3187130786
 H        -9.3861944726        3.8796417440        3.7799974211
 H       -14.1141110921       -3.0777166929       -0.5152453766
 H       -12.7399652025       -3.7623839305        0.1019298835
 H       -12.6502433409       -2.0791335524       -0.2196560797
 H       -15.8722964556       -2.6876665228        1.3511288654
 H       -15.3154346384       -1.0934462330        1.2216298127
 H       -15.4691683373       -1.8613844033        2.7612285286
 Na       -9.0851781421        4.6549883443       -1.1736174544
