117

 C       -14.1308481294       -3.7212671575        3.9327103816
 C       -13.4514054773       -3.6978427162        2.5073613776
 O       -12.6491020448       -4.5779893520        2.2303344602
 C       -13.7024934955       -2.4155043127        1.6559394910
 C       -12.7762080621       -1.2222180057        2.1694168458
 O       -13.2046795150       -0.0654321771        2.1634253015
 C       -11.3587222672       -1.6344166459        2.6301101628
 C       -10.6895855527       -0.4441439854        3.3665471523
 C       -10.3128911048        0.7393305222        2.4481357758
 O        -9.7355876370        0.6000619767        1.4106493805
 C       -10.6361273359        2.2547443133        2.9841191960
 C       -11.2060612670        2.9308182330        1.6843511654
 O       -10.3904684847        3.3807486345        0.8674265055
 C       -12.6932135268        2.7741201544        1.3823061827
 C       -13.1632777880        3.6811017053        0.2015728418
 C       -13.3047492038        5.1353004097        0.6876255135
 O       -13.1811883254        5.5588295339        1.8320757765
 C       -13.4797105288        6.2597403282       -0.4860533978
 C       -11.9530898226        6.4587246435       -0.6906621398
 O       -11.3343893707        5.5870476249       -1.3058589010
 C       -11.2519777454        7.7280727446       -0.1240714196
 C       -10.3115515992        7.3558353516        0.9720188357
 C        -9.3051999967        8.3947804406        1.4782418530
 O        -9.6321594099        9.5004491763        1.7797309492
 C        -7.8407862757        7.8556428813        1.7829119657
 C        -7.3545714561        7.0980550135        0.5038713024
 O        -7.8280021416        5.9850798337        0.2908302180
 C        -6.2938877219        7.7274817315       -0.3329371366
 C        -6.1442809352        7.0378718306       -1.7169806947
 C        -6.8963801758        7.9090073499       -2.8548547928
 O        -7.2975423174        9.0292549445       -2.6452220635
 C        -7.0097380126        7.1632367780       -4.2543091193
 C        -7.4121192732        5.6691551410       -4.1022933431
 O        -8.3659611964        5.3956422921       -3.3640063778
 C        -6.5227177849        4.5031605818       -4.7164427799
 C        -6.8954149839        3.1479456800       -4.1631093279
 C        -6.7868627421        3.0472661078       -2.6294420920
 O        -6.3253917901        3.9786164199       -2.0243631009
 C        -7.3376800663        1.7214614364       -1.8454425430
 C        -8.9311270695        1.5673637035       -1.9728549618
 O        -9.6788335298        2.5140965216       -1.9889308797
 C        -9.5545539863        0.1457369494       -1.9591812101
 C        -6.4989109690        0.5785980581       -2.5347595605
 C        -6.8904443512        1.8048145751       -0.3670088546
 C        -8.1379958981        7.8654384125       -4.9831220936
 C        -5.6855174871        7.4249276287       -5.0760666096
 C        -6.9190154283        9.0732023650        2.1084043740
 C        -8.0469243341        6.8870452819        2.9733148946
 C       -14.1712336032        5.6650709810       -1.7389447417
 C       -14.2165551216        7.4923827274       -0.0715797644
 C       -11.6781200001        2.2704510511        4.1095698862
 C        -9.3041806762        2.9038317804        3.4191800712
 C       -13.3472739821       -2.7620373885        0.2097669789
 C       -15.2254534937       -2.0305177044        1.7189969441
 H       -15.1579837928       -4.0546182614        3.7812160078
 H       -14.1526512064       -2.7481780750        4.3882138680
 H       -13.5464891895       -4.3878501425        4.5262156638
 H       -10.8169278464       -2.0051988937        1.6845079331
 H       -11.3635357608       -2.4598229491        3.3613941476
 H        -9.7759845806       -0.8098502488        3.7815628474
 H       -11.3676501705       -0.0761307331        4.1980293851
 H       -13.2533585720        2.9325650482        2.3268671747
 H       -12.8027048745        1.7289705169        1.0526555773
 H       -14.1696462203        3.4053956918       -0.2006250664
 H       -12.3545473360        3.7100784707       -0.5929045148
 H       -11.9489638889        8.5406370313        0.0665889064
 H       -10.8810727936        8.2035683833       -1.0096130771
 H        -9.7867824027        6.4321110861        0.7667338634
 H       -10.8913990398        7.1230650959        1.8670946786
 H        -5.3269890712        7.7689060122        0.2710366681
 H        -6.5473906720        8.7166906380       -0.5051656755
 H        -6.3966452451        5.9480410542       -1.7040468638
 H        -5.0976223123        7.0131799037       -1.9549861490
 H        -5.5182801811        4.7940942228       -4.4642133564
 H        -6.5133514195        4.5336177623       -5.8066513125
 H        -6.2360445436        2.4011977534       -4.6232938245
 H        -7.9128965365        2.8433947517       -4.4527846033
 H        -9.5813773290       -0.3361452618       -2.9542186026
 H       -10.5634180630        0.3917781915       -1.5917228302
 H        -8.8955115556       -0.4768584015       -1.2800318026
 H        -6.8241520652        0.3478312553       -3.5213006457
 H        -6.4870863212       -0.3856235392       -2.0539474173
 H        -5.4306828247        0.9754249827       -2.5884297116
 H        -5.8378755346        1.8590128824       -0.3349343567
 H        -7.2044456792        0.8514097832        0.1316049427
 H        -7.2929881191        2.6487321722        0.0561210450
 H        -8.2555829899        7.5206537700       -6.0015817682
 H        -7.7165139101        8.8051420885       -5.1524951762
 H        -9.1483525167        7.7370397937       -4.4118416960
 H        -4.7859767105        6.8792662870       -4.5821851773
 H        -5.4822226236        8.4817324479       -5.1076938871
 H        -5.9004189295        6.9775787793       -6.0508038400
 H        -7.3619737295        9.5845847108        3.0391538872
 H        -6.9389177108        9.9083164543        1.3753086532
 H        -5.8687670021        8.8233247268        2.4012833815
 H        -8.6708467425        6.0526346381        2.7357381584
 H        -8.4105306613        7.4657356936        3.8124738954
 H        -7.0319787455        6.4615013309        3.2185694075
 H       -14.0728167782        6.3472639997       -2.5722017872
 H       -15.2825850017        5.5754759192       -1.5122453560
 H       -13.6792619579        4.7339806425       -2.0801651102
 H       -14.1397504447        8.3190775423       -0.7700885860
 H       -13.6090887825        7.9318732593        0.8314224431
 H       -15.2422222365        7.2910513027        0.0632722194
 H       -11.4157146313        1.6937875504        5.0469795422
 H       -12.6702457880        1.9450246189        3.9221602982
 H       -11.8159663697        3.2834845939        4.4451866359
 H        -8.6270529504        3.0289919580        2.5450089304
 H        -8.8962276774        2.3959924807        4.2679149945
 H        -9.4270983566        3.9324210418        3.6902978658
 H       -14.2131875948       -2.7776655441       -0.4295083134
 H       -12.9593402324       -3.7749904408        0.0201182811
 H       -12.6095690403       -2.0776137997       -0.1623747874
 H       -15.8939770772       -2.6901976239        1.1559141602
 H       -15.3905473835       -1.0378863390        1.3866395536
 H       -15.5641188124       -2.0500189727        2.7411737948
 Na       -9.1026185615        4.6280809084       -1.2597997849
