117

 C       -14.1966548672       -3.6400675301        4.0064793488
 C       -13.4376858037       -3.6064070079        2.6108256508
 O       -12.6786628004       -4.4966349287        2.2454835824
 C       -13.7159160836       -2.3900885115        1.7171366022
 C       -12.8091661336       -1.3057534036        2.2494722314
 O       -13.2326418833       -0.1553190897        2.3280671240
 C       -11.3607359084       -1.5708776199        2.6008867001
 C       -10.5180426424       -0.5462134004        3.3549083198
 C       -10.2791885069        0.7167583906        2.4440800318
 O        -9.7349272616        0.5412744127        1.3781374676
 C       -10.6700371813        2.1707355170        2.8903645370
 C       -11.3070923272        2.9126387826        1.6940434778
 O       -10.5777951373        3.5448075821        0.9053975464
 C       -12.8149082122        2.7454251855        1.3572137717
 C       -13.2581529860        3.7559379947        0.2297891819
 C       -13.3761644889        5.2224633234        0.6599079307
 O       -13.0903550612        5.5320748867        1.7756928725
 C       -13.5088408267        6.3029570105       -0.4674334816
 C       -12.0132859314        6.5396186837       -0.7923654785
 O       -11.3613805036        5.6209182460       -1.3236920828
 C       -11.2132972357        7.7411038835       -0.1881978400
 C       -10.2979869395        7.2830461335        0.9317398993
 C        -9.3950716197        8.4430238528        1.4581507599
 O        -9.6436623714        9.5913505215        1.6938193494
 C        -7.8169645855        7.9342212103        1.7991045127
 C        -7.2911577210        7.1536221290        0.6011286994
 O        -7.7399799482        6.0285178100        0.3385199239
 C        -6.3111747023        7.8733157785       -0.4073494520
 C        -6.1855006760        7.1294922493       -1.7325865066
 C        -6.9000516518        7.8197745395       -2.8413644139
 O        -7.4879509505        8.8737221163       -2.6826048302
 C        -7.0062764875        7.1157948834       -4.2491736863
 C        -7.2827689572        5.5893632266       -4.0073890699
 O        -8.3489985407        5.2886829910       -3.4615653189
 C        -6.4504830567        4.4920876172       -4.5938737302
 C        -6.7347577955        3.0713048304       -4.2192077291
 C        -6.8228588176        2.9748086278       -2.6590642091
 O        -6.1274891543        3.7349853271       -1.9934355849
 C        -7.3473713465        1.6721475145       -1.9530123876
 C        -8.9159842594        1.6097578343       -1.9537103163
 O        -9.6218536552        2.6112851329       -2.0270505263
 C        -9.5459013461        0.1930947115       -1.8296776568
 C        -6.5747138961        0.4512607358       -2.4890482373
 C        -6.9207012144        1.7398357558       -0.4675016526
 C        -8.2023972563        7.7651045748       -5.1318527659
 C        -5.6096583174        7.3216967369       -4.9278721501
 C        -6.9451196181        9.1320209733        2.2672388259
 C        -7.9849389216        6.9058634041        2.8872737824
 C       -14.0379730818        5.7493135826       -1.8526984924
 C       -14.2306771981        7.5692743270        0.0845631632
 C       -11.5634972200        2.2374036756        4.1817042238
 C        -9.3678814458        2.9183646858        3.3116230905
 C       -13.3226964403       -2.6621665574        0.1674606069
 C       -15.2137906388       -2.0055978987        1.7247215835
 H       -15.1924413217       -3.9472399941        3.8204146635
 H       -14.2095363663       -2.6145298460        4.4695077834
 H       -13.6504405527       -4.3279012473        4.6527282925
 H       -10.8798555167       -1.8521832970        1.6555059091
 H       -11.3278096473       -2.4773174844        3.2655482737
 H        -9.5346897434       -1.0699473164        3.6121405259
 H       -11.0035445507       -0.2563170560        4.2401189003
 H       -13.3566511108        2.9320798707        2.2879330696
 H       -13.0594729869        1.7805531574        0.9495486342
 H       -14.2634810346        3.3879922338       -0.1286589995
 H       -12.5123482463        3.7473921289       -0.6040202166
 H       -11.8548078952        8.5820409111        0.0374408532
 H       -10.7458057708        8.2658725384       -1.0149300494
 H        -9.6728809798        6.4386165658        0.6817005767
 H       -10.8620929710        6.9764356561        1.7926604419
 H        -5.3102473179        7.8805059327        0.1087195352
 H        -6.5631748206        8.9414318686       -0.6112428586
 H        -6.5631193091        6.0585079526       -1.6256735290
 H        -5.1571371263        6.9609705450       -2.0166900026
 H        -5.4169811966        4.7357708066       -4.4367034689
 H        -6.5668697171        4.7220011913       -5.6781052607
 H        -5.8960077722        2.4250329956       -4.5861378852
 H        -7.6894905913        2.6521372058       -4.6529638442
 H        -9.2142033462       -0.3113038831       -2.7110578353
 H       -10.6488780411        0.3955555159       -1.9016258507
 H        -9.1502620642       -0.3613360409       -0.9535007099
 H        -7.0149583998       -0.0334376732       -3.4221774786
 H        -6.6386911732       -0.3592519125       -1.7692851081
 H        -5.5493854735        0.6657243493       -2.6488252478
 H        -5.8175123270        1.9377276587       -0.4324374413
 H        -7.1160732212        0.8203493681        0.0123073019
 H        -7.4402057375        2.6071051236       -0.0082377831
 H        -8.0129190952        7.5472016452       -6.1949017966
 H        -8.1306127035        8.8332790699       -5.1411796115
 H        -9.1186841290        7.2687818503       -4.8225614800
 H        -4.8880197798        6.8227889752       -4.4428966882
 H        -5.3909534807        8.4243134747       -4.7765779812
 H        -5.6528895926        6.9921588607       -5.9750524979
 H        -7.3618105990        9.5333559680        3.2320722098
 H        -6.8319247574       10.0286317967        1.6241594840
 H        -5.9768857803        8.7509326759        2.5817444942
 H        -8.4578328428        5.9884239096        2.4640732143
 H        -8.6179268770        7.3942843601        3.6863726996
 H        -7.0157528546        6.6026301857        3.3307335191
 H       -13.9118089181        6.5533717225       -2.6075334147
 H       -15.0583416330        5.5420266265       -1.8319123094
 H       -13.4040303580        4.8716430814       -2.1659839701
 H       -14.0902634698        8.4231698062       -0.5866641311
 H       -13.7983548481        7.9274407322        0.9888662222
 H       -15.3094742074        7.3413781641        0.0913875406
 H       -11.1709821940        1.7727882666        5.0879735489
 H       -12.6091321654        1.7910770686        4.0917608245
 H       -11.7626575694        3.2633072424        4.4807360582
 H        -8.6827953448        3.0338120125        2.5097366502
 H        -8.9359521268        2.4370329090        4.1988514505
 H        -9.5833135238        3.9389545204        3.5837261563
 H       -14.1626599338       -2.5700193650       -0.5078629492
 H       -12.9719045505       -3.6615953661       -0.0662434429
 H       -12.5164152364       -1.9596909455       -0.1494724948
 H       -15.8669308527       -2.6912512257        1.1374096185
 H       -15.3376863757       -0.9603904623        1.3135811890
 H       -15.6150430964       -1.9082469663        2.7412032295
 Na       -9.1635009292        4.6328786165       -1.2852047707
