117

 C       -14.1603365253       -3.6398844762        3.9741361618
 C       -13.5290285773       -3.6546308827        2.6213390120
 O       -12.7110316308       -4.4759871338        2.3472376062
 C       -13.7729748943       -2.3315763624        1.7319132490
 C       -12.8396898039       -1.1903853908        2.2813552853
 O       -13.2463966239       -0.0997907475        2.5500449515
 C       -11.2898504515       -1.6467824847        2.5614429470
 C       -10.4835946002       -0.5939126578        3.3009499799
 C       -10.3038229340        0.7151620088        2.4339479058
 O        -9.7448604705        0.5383469626        1.3531496737
 C       -10.6931604046        2.1277120176        2.8473748478
 C       -11.3600025790        2.9631555289        1.6029105604
 O       -10.7003128796        3.6972888274        0.9367064699
 C       -12.9060809793        2.8027873395        1.3505664141
 C       -13.3705362162        3.6861888612        0.2108230913
 C       -13.2878634709        5.2137638354        0.6430150213
 O       -13.1000313197        5.5855244133        1.7724731407
 C       -13.3906698570        6.3422238378       -0.5043903108
 C       -11.9063677283        6.5709016727       -0.7415947506
 O       -11.3268581180        5.7084761553       -1.3753266698
 C       -11.1333434217        7.8437131391       -0.2447705490
 C       -10.3374308427        7.3775324438        0.9876599755
 C        -9.2852346615        8.4350775669        1.4304793275
 O        -9.7249644243        9.5689139840        1.5301337936
 C        -7.8708629042        7.9368201324        1.8573787177
 C        -7.2855152833        7.2486659517        0.5501191420
 O        -7.5918150118        6.1029457683        0.2880371375
 C        -6.2995472273        7.9482584781       -0.4392280738
 C        -6.1715254142        7.1873458083       -1.7384703865
 C        -7.0787516019        7.7501018359       -2.8123719460
 O        -7.6759462545        8.7916195554       -2.7090811859
 C        -6.9864360549        7.0235404821       -4.2672948654
 C        -7.3631510637        5.5025338341       -4.0792461196
 O        -8.3467522305        5.2098077033       -3.4549378162
 C        -6.2885326543        4.4694182353       -4.6206507270
 C        -6.6832986971        3.0491767922       -4.1870295387
 C        -6.6101188241        2.8140029856       -2.6400726431
 O        -6.0415261198        3.6542077697       -1.9807043963
 C        -7.2743606529        1.5864976623       -1.9530082407
 C        -8.8423541410        1.5576572553       -2.0390930145
 O        -9.5168745354        2.5849745304       -2.0482062591
 C        -9.5597459990        0.2363835103       -1.7794227313
 C        -6.7767443391        0.2982879964       -2.5684234943
 C        -7.0137561646        1.7781935093       -0.3991435402
 C        -8.0787898989        7.5685862696       -5.1636691061
 C        -5.5715845304        7.2673006837       -4.8569107154
 C        -7.0629128512        9.1064069651        2.3353211464
 C        -7.9501534435        6.8682249695        3.0136832668
 C       -14.0609171133        5.8979976851       -1.8564007879
 C       -14.2461962329        7.4973597020        0.1147995173
 C       -11.5474551747        2.1541782733        4.1514891806
 C        -9.3741105818        2.8995529140        3.1565643199
 C       -13.2508547852       -2.6271712731        0.2612389440
 C       -15.1911298800       -1.9019543563        1.7318797305
 H       -15.2294647143       -3.9018497318        3.9085541201
 H       -14.0754192643       -2.5954935937        4.3059408975
 H       -13.5678500268       -4.3156845985        4.6323896579
 H       -10.8155843364       -1.7898889327        1.6341881322
 H       -11.2808994019       -2.6060005866        3.0902334410
 H        -9.4413882749       -0.9534218628        3.5211269925
 H       -10.9364093703       -0.3387549415        4.2381809833
 H       -13.3669501749        3.1694079635        2.2509389259
 H       -13.2796798347        1.8040704261        1.1020545393
 H       -14.3984711093        3.3554645026        0.0253269586
 H       -12.7568902416        3.5717771318       -0.6745633263
 H       -11.8019966696        8.6853319219       -0.2241174921
 H       -10.5020355208        8.2688456732       -1.0418866461
 H        -9.8321595826        6.4316945590        0.7496426829
 H       -10.9643197903        7.1995092496        1.8683278120
 H        -5.3872513095        8.0628489434        0.1089286304
 H        -6.6350265784        9.0343329134       -0.7849106268
 H        -6.4266917735        6.1489913989       -1.5606243944
 H        -5.1355395790        7.1053154773       -2.1754446799
 H        -5.2783427676        4.7737531745       -4.2547240116
 H        -6.2137965292        4.6332602865       -5.7001151537
 H        -6.0672376253        2.2891870010       -4.7278210736
 H        -7.7510693672        2.8385726119       -4.4260705388
 H        -9.0387654784       -0.5614695700       -2.3164151644
 H       -10.5719438207        0.3468959095       -2.0999443987
 H        -9.4000899499        0.0813695625       -0.7461264333
 H        -7.2912971721        0.0759488629       -3.5261074360
 H        -7.0205619113       -0.5789208517       -1.9376668161
 H        -5.7291934346        0.2526010967       -2.7463811345
 H        -5.9195236450        1.9430441107       -0.2325696631
 H        -7.3162317976        0.8939724148        0.1432847524
 H        -7.5828608832        2.7174239657       -0.0661444599
 H        -7.8169285879        7.5503323949       -6.2247444746
 H        -8.2969952883        8.6482544549       -4.9862886113
 H        -8.8211587491        6.9082792546       -4.9843680983
 H        -4.8020996434        6.8578803537       -4.2073165632
 H        -5.4675455371        8.3219175610       -4.7671503972
 H        -5.4411915280        6.8723592051       -5.8330921660
 H        -7.4124590999        9.5403593568        3.2062242450
 H        -6.9736655215        9.8941575083        1.6056717763
 H        -6.0878016050        8.7120447279        2.5975416015
 H        -8.2752494877        5.8434711958        2.6225257293
 H        -8.6651876470        7.2898155833        3.7579208817
 H        -6.9925159861        6.7697881360        3.5209059451
 H       -14.2237416513        6.7751337604       -2.5188841193
 H       -15.0528478721        5.5707776135       -1.6286082760
 H       -13.4945780266        5.1089856615       -2.3142813820
 H       -14.0954676874        8.4385139713       -0.4133067488
 H       -13.9969012176        7.6962937101        1.0888440072
 H       -15.2999021191        7.1816751130       -0.0409321816
 H       -11.0375326166        1.9078698810        5.0725111626
 H       -12.3687226341        1.4202407249        4.0396044540
 H       -12.0701297733        3.1031881339        4.4409428916
 H        -8.8121915220        2.8663372769        2.2546822016
 H        -8.7974531602        2.4479184277        3.9612473082
 H        -9.4929796927        3.9761418899        3.3766878964
 H       -13.9830765292       -2.5713236314       -0.5642778589
 H       -12.8575399160       -3.6327988152        0.1722829265
 H       -12.4026870771       -1.9642167135        0.0094570156
 H       -15.9120894638       -2.6551950697        1.3701841504
 H       -15.3370864941       -0.9550102248        1.1291679135
 H       -15.4720070648       -1.5434957731        2.7675974369
 Na       -9.2184383104        4.7394831232       -1.2255642727
