117

 C       -14.4350670273       -3.5514563454        4.0203160447
 C       -13.6335287332       -3.6043658209        2.7413271538
 O       -12.9320664093       -4.5124417991        2.4571836979
 C       -13.7183341481       -2.2813471140        1.7647610678
 C       -12.7771006576       -1.2596676985        2.4996024399
 O       -13.1522541987       -0.2382230678        3.0480542853
 C       -11.2020986858       -1.5316037622        2.5285843950
 C       -10.4102539555       -0.3589831816        3.1568073953
 C       -10.2765321696        0.8626565555        2.1832247832
 O        -9.8897549911        0.6718704874        1.0470911220
 C       -10.6517978819        2.2954961344        2.6204309491
 C       -11.3721933467        3.0876614193        1.4468460652
 O       -10.7824212463        3.8800719604        0.7316666030
 C       -12.9044741956        2.8829970050        1.3284058598
 C       -13.4368694799        3.8166806697        0.2397089368
 C       -13.3402312431        5.2591075794        0.6415037405
 O       -13.1301171063        5.5789450748        1.7743666197
 C       -13.3256025436        6.2907011476       -0.4234385629
 C       -11.8494199921        6.5564066044       -0.8693100051
 O       -11.3420741924        5.8753455363       -1.7484127068
 C       -11.0814997897        7.7078664344       -0.2091904814
 C       -10.5179918831        7.4373028151        1.2010204960
 C        -9.3885950556        8.5103188304        1.4530403510
 O        -9.4581801031        9.6812590831        1.1435845215
 C        -7.8889011832        7.9267884371        1.8153359487
 C        -7.4566789752        7.2493527306        0.5275274551
 O        -7.8245688174        6.1357590092        0.2320658963
 C        -6.6519146047        8.1388998018       -0.4277603235
 C        -6.1315076767        7.5639332579       -1.7881747297
 C        -7.2171737462        7.6077547773       -2.8219479091
 O        -8.2829088846        8.1757696347       -2.6867451885
 C        -6.8791710871        6.8292999100       -4.2055264698
 C        -7.1589992620        5.3544423342       -3.9260407851
 O        -8.0976517905        5.0448110800       -3.2308633285
 C        -6.3524012021        4.2293384659       -4.5289141648
 C        -6.7568401860        2.8074207012       -4.1079976973
 C        -6.5914314362        2.6625469395       -2.4612307465
 O        -5.8636886551        3.3801880880       -1.8061138094
 C        -7.2825526714        1.3987784265       -1.8024610295
 C        -8.8883383041        1.6542048990       -2.0049601099
 O        -9.3277636984        2.7863026478       -2.0751507098
 C        -9.8508804510        0.4782148389       -2.0934735147
 C        -6.5943035350        0.2188477744       -2.4887000611
 C        -6.9112212356        1.2689001465       -0.2796590624
 C        -7.9303479491        7.2389604791       -5.2304096318
 C        -5.4830062695        7.0805296761       -4.7200150602
 C        -7.0039014253        9.0786754516        2.2794258407
 C        -7.9868071959        6.8373549485        2.9726404423
 C       -14.0800190733        5.8606693186       -1.6961374826
 C       -13.8707808873        7.6771425278        0.1113451111
 C       -11.4775749264        2.4145633907        3.9153753690
 C        -9.2803647942        2.8954841182        2.9651576273
 C       -13.2195869668       -2.6160486998        0.3579260071
 C       -15.1071605731       -1.6810953724        1.8011022006
 H       -15.4474722090       -3.5268457023        3.8076067895
 H       -14.1415526554       -2.5789449358        4.4320615663
 H       -14.1380031477       -4.3928591963        4.6327782206
 H       -10.8453775344       -1.6828136302        1.4848127637
 H       -11.0540435824       -2.5135365754        3.1035166979
 H        -9.3137387091       -0.6221305866        3.3717800285
 H       -10.7552003058       -0.0678607294        4.0891136029
 H       -13.4000230096        3.1484676815        2.2765937285
 H       -13.1111953251        1.8627932420        1.0162138400
 H       -14.5528545362        3.6441232551        0.1894259969
 H       -12.9382116000        3.5724383604       -0.7365282113
 H       -11.5854641109        8.6688202483       -0.3555962843
 H       -10.1917915490        7.7871274867       -0.8965167128
 H       -10.1142655446        6.4538754314        1.4409051924
 H       -11.2801083407        7.6720287825        1.9238783592
 H        -5.7865414033        8.5271788853        0.0825633622
 H        -7.2801349116        9.0385772649       -0.6921907354
 H        -5.6297076108        6.5830034493       -1.6536801816
 H        -5.3631618558        8.2145164064       -2.1551102982
 H        -5.3678486090        4.4715031526       -4.1953830039
 H        -6.3004085763        4.3236375763       -5.6318104241
 H        -6.0623673594        2.1214112762       -4.5984915987
 H        -7.8032896044        2.5928894338       -4.3799550543
 H        -9.3191111250       -0.4317213827       -2.4206600015
 H       -10.4512581434        0.7697983299       -3.0012948865
 H       -10.3490539024        0.3456528788       -1.1067323153
 H        -6.8862295109        0.0866593611       -3.5805162516
 H        -6.7758131209       -0.7146060211       -1.9614661082
 H        -5.5615613355        0.2774537889       -2.4968308494
 H        -5.8703489610        0.9872546721       -0.2403158227
 H        -7.4417575574        0.5958901028        0.2488934283
 H        -7.0276209688        2.2768551659        0.1225537212
 H        -7.8686892785        6.5256605642       -6.1142705029
 H        -7.7178027456        8.3306425014       -5.5344283052
 H        -8.8730633178        7.1401476583       -4.7448096469
 H        -4.8031922843        6.6834278959       -4.0211296311
 H        -5.2805413228        8.1947383049       -4.8458890428
 H        -5.3538031717        6.4790826965       -5.6703863826
 H        -7.4071536652        9.4571971342        3.2344773396
 H        -7.0804032936        9.9219011307        1.5223202854
 H        -5.9450468670        8.8215549245        2.5142923313
 H        -8.6014575748        6.0535432447        2.5439498576
 H        -8.4113410251        7.2695181621        3.8657224841
 H        -7.0346876729        6.4942071734        3.2152214789
 H       -14.3555862328        6.7897452762       -2.2501882249
 H       -14.9805278839        5.3489102996       -1.5360172394
 H       -13.4281957026        5.0741236792       -2.1384341851
 H       -13.8339852599        8.3704660540       -0.7790211357
 H       -13.3654997794        8.0742127432        0.9195392742
 H       -14.9572062004        7.4992718178        0.4485621906
 H       -11.0700614072        1.9688768267        4.7570452470
 H       -12.5394288910        2.1107514455        3.7813356724
 H       -11.5913476111        3.4180534921        4.2783671375
 H        -8.6164861188        2.9457909458        2.1304003286
 H        -8.7447356576        2.2211846901        3.7021201639
 H        -9.3909682294        3.8673831222        3.4699191890
 H       -13.7894335681       -3.3875308613       -0.1241762941
 H       -12.2114749385       -2.9574763993        0.4088369822
 H       -13.2649323795       -1.8015194791       -0.3870949915
 H       -15.7772387752       -2.4264142321        1.5217263455
 H       -15.2520931850       -0.9360106617        1.0424166668
 H       -15.3866868927       -1.2214660312        2.6986576054
 Na       -9.1050849319        4.8796933737       -1.0833547399
