117

 C       -14.8590382509       -3.0562855117        4.1410593336
 C       -13.8416387100       -3.2010671357        3.0309226791
 O       -13.0373737836       -4.1687161745        3.0726528322
 C       -13.6388084011       -2.0714619216        2.0107387741
 C       -12.5774686190       -1.1357717470        2.7763291455
 O       -12.9214693095       -0.2906106116        3.5377393548
 C       -11.0642856641       -1.4470000728        2.5721422538
 C       -10.2282343630       -0.2329133568        2.8305446141
 C       -10.6042024572        0.9484075975        1.9440211078
 O       -11.0466251661        0.7319587268        0.8219041114
 C       -10.3808109996        2.4436284773        2.4002049271
 C       -11.0399714133        3.5078368753        1.4429987023
 O       -10.4529507734        4.4948020140        1.0577163509
 C       -12.4793724718        3.2601735222        1.0942919126
 C       -13.0217398310        4.2398860908        0.0390805512
 C       -13.3788098709        5.6522314805        0.6155831127
 O       -13.4418150978        5.9804127113        1.7988238851
 C       -13.4464685851        6.7512363890       -0.5728466154
 C       -11.9736597591        6.9377665200       -1.0170132340
 O       -11.4640378208        6.0992069640       -1.7464300271
 C       -11.2242086574        8.1994785575       -0.5293410363
 C       -10.6872353220        7.8045859832        0.8335636904
 C        -9.5744850340        8.7285755994        1.2861629119
 O        -9.7173985380        9.9116592686        1.3476221421
 C        -8.1565580791        8.0712445392        1.6100130044
 C        -7.5673548207        7.6045284292        0.3021210924
 O        -7.4866050780        6.4108238720        0.0447171199
 C        -7.0474206472        8.6280906779       -0.7625561418
 C        -6.3232497469        7.9880192102       -1.9788990883
 C        -7.2325213728        6.9600281478       -2.6592088117
 O        -8.4528478792        6.9532537208       -2.3674894363
 C        -6.7657375138        6.2166598994       -3.9365661889
 C        -6.8732101423        4.6081410830       -3.5760322700
 O        -7.8523930445        4.1812043090       -2.9915000023
 C        -5.8059117955        3.5686012854       -4.2747350468
 C        -6.2078959167        2.1283488806       -3.9277056661
 C        -6.2627125309        1.9520858877       -2.4222810761
 O        -5.5250557736        2.6147897337       -1.7516626055
 C        -7.2804319713        0.9304810098       -1.7263058183
 C        -8.8260541170        1.4643640802       -2.1397833455
 O        -9.2468329987        2.5279190017       -1.6689026081
 C        -9.7618492100        0.7881540352       -3.2163861105
 C        -6.9695443472       -0.4904475950       -2.2625780210
 C        -7.0368331026        0.9024474906       -0.1974642693
 C        -7.7480867633        6.4209866042       -5.1809748276
 C        -5.3586097243        6.5795261043       -4.2842001344
 C        -7.3961401153        9.1382725362        2.3948107912
 C        -8.3398943934        6.8166808458        2.5714634022
 C       -14.2676812731        6.2653381827       -1.8052165114
 C       -14.0810075193        8.0774431623       -0.0277835834
 C       -10.8900640967        2.5724889792        3.8051813584
 C        -8.8626643252        2.7570077656        2.3969564413
 C       -13.2888716289       -2.6714337016        0.6817850218
 C       -14.9073901915       -1.1490866121        1.8435736267
 H       -15.8759188617       -2.9718771454        3.6901332563
 H       -14.5058788519       -2.1979990503        4.7205448901
 H       -14.7476645809       -3.9711093406        4.7581456619
 H       -10.9114258594       -1.9147195687        1.6582738738
 H       -10.9601486016       -2.2475009229        3.3335254704
 H        -9.1274391245       -0.3513422923        2.6808525870
 H       -10.3611652516        0.1066896800        3.8173380884
 H       -12.9680734907        3.2601679852        2.0873924626
 H       -12.6523800681        2.1962649794        0.7607389245
 H       -13.8237767781        3.7678048609       -0.4891869493
 H       -12.2527010288        4.3098046661       -0.7066366450
 H       -12.0264668803        8.8338316477       -0.2542456795
 H       -10.4925975366        8.4916500017       -1.2771629817
 H       -10.2807289345        6.7681743433        0.8167981829
 H       -11.5830683641        7.9066919014        1.4923210739
 H        -6.4299578985        9.2317378667       -0.2582941593
 H        -7.8888016748        9.2685280482       -1.1017791080
 H        -5.4564575587        7.5116888159       -1.5192976789
 H        -5.9328939822        8.7096598618       -2.6977837467
 H        -4.8295261276        3.8230611781       -3.8409756925
 H        -5.8248204371        3.7030898279       -5.3791727674
 H        -5.5010770132        1.4101598844       -4.3291351286
 H        -7.1740612000        1.9222650460       -4.3624458480
 H        -9.4317156860        1.3762783269       -4.0904559915
 H       -10.7519952650        1.0301970730       -3.0046901045
 H        -9.6147634602       -0.2334132498       -3.3513169838
 H        -6.9544207892       -0.5471911266       -3.3508249632
 H        -7.7690767566       -1.1965201529       -2.0086063940
 H        -6.0331775160       -0.8577730446       -1.8831443644
 H        -6.1385047206        0.3226754742        0.0084570644
 H        -7.9085412084        0.3877382231        0.3648923747
 H        -6.8329020949        1.8973157859        0.2353061825
 H        -7.3371024005        5.9370485635       -6.0340081726
 H        -7.9167416798        7.5086570250       -5.2727888586
 H        -8.7147231196        6.0249535825       -4.8696115140
 H        -4.6196769139        6.3233937273       -3.3963074293
 H        -5.1594343961        7.5638533140       -4.5624104641
 H        -5.0290571438        5.9188491228       -5.0907383160
 H        -7.8576857572        9.1238553376        3.3210567870
 H        -7.6122971139       10.1049565238        1.9751458958
 H        -6.3119829016        9.0063393161        2.4397918342
 H        -8.7951061973        5.9772693114        1.9674430690
 H        -8.9536357244        7.1187062631        3.4231350960
 H        -7.3305578813        6.4859047205        2.7502061334
 H       -14.2680249562        6.9428225421       -2.6662412537
 H       -15.2798256923        6.0390003401       -1.4590697357
 H       -13.7674355033        5.4659204263       -2.2549966560
 H       -14.1993916537        8.8614064023       -0.7071495031
 H       -13.5016322085        8.3595465381        0.9001861423
 H       -15.0743202079        7.8059213021        0.1986758240
 H       -10.2434507305        2.1168920917        4.5351847895
 H       -11.7581874720        1.9024953434        3.8880405135
 H       -11.1875471680        3.6224989747        4.0836985818
 H        -8.5971781311        2.8488581221        1.3535049652
 H        -8.2930684805        1.9495252342        2.8538695646
 H        -8.5375682949        3.7046761065        2.8317636364
 H       -12.2251277675       -2.4282340201        0.4578659077
 H       -13.8625406466       -2.2670089914       -0.1472687675
 H       -13.4268058927       -3.7757240592        0.6321773742
 H       -15.8296297422       -1.6718098488        1.5705744821
 H       -14.6161628200       -0.3228016943        1.1441890440
 H       -15.2211568351       -0.7080489366        2.8414609454
 Na       -9.3082777381        4.9135488226       -1.1317926486
