117

 C        -1.3309554937        3.5072235081        6.1758052053
 C        -2.2461028311        4.5555897104        6.6435055146
 O        -2.8226365360        4.5523505509        7.7120727271
 C        -2.6715165517        5.5871036801        5.4749973147
 C        -3.9257425485        5.1115436745        4.6851350559
 O        -3.9119803373        4.7105714868        3.5041366640
 C        -5.2577802704        5.3075488709        5.4713203355
 C        -6.4518148225        4.4256195156        5.2100259311
 C        -7.7140808450        5.1502618876        4.6428347920
 O        -7.5929065759        6.3517702329        4.4151430369
 C        -8.9494307485        4.1972444000        4.3156388086
 C       -10.1726130444        5.0175680080        3.8034498381
 O       -11.2986729557        4.6905759147        4.1736565097
 C        -9.9450227141        6.3097543689        2.9012334174
 C       -11.1733950782        6.8019400193        2.1391396269
 C       -11.5996458149        5.7358848049        1.1582745684
 O       -10.9117519498        4.7012030418        0.9793278967
 C       -12.8620786844        5.8420400530        0.3293879335
 C       -13.6648262539        4.5505495590       -0.0052152981
 O       -13.9923586826        4.2212262835       -1.1581263761
 C       -14.3477865430        3.8391040379        1.1957228410
 C       -14.9321159771        2.4838110988        0.6520883744
 C       -13.8524306476        1.7057819864       -0.0355919286
 O       -12.6917721161        1.9958776568        0.2003885600
 C       -14.1066435462        0.5597734794       -1.1902740306
 C       -13.2600568794        1.0298394449       -2.5914159360
 O       -12.4686792027        1.9370324216       -2.4901804673
 C       -13.6091920123        0.1585141844       -3.8581013618
 C       -12.4909628006        0.3863462511       -4.8730396429
 C       -12.8096586550        1.5597478575       -5.8771010080
 O       -13.7778855080        2.2210616008       -5.7620107704
 C       -11.6282974199        2.0110308528       -6.9134493617
 C       -10.5507444672        2.6257790078       -6.0525969006
 O        -9.7700050863        1.9711619361       -5.3793700508
 C       -10.5921429507        4.1431628821       -5.7942162287
 C        -9.3315204216        4.5309765975       -4.9215225726
 C        -9.3553044428        4.0264534692       -3.4643568875
 O       -10.4136186379        3.9758312493       -2.8492876285
 C        -7.9791939440        3.8082409148       -2.8225008160
 C        -8.0345495313        2.3416163705       -2.1730278376
 O        -8.9461489253        2.0019714170       -1.4008443092
 C        -7.0927940931        1.2756363040       -2.6798280903
 C        -6.7733330706        3.9782243319       -3.7212768572
 C        -7.8907625345        4.8750745427       -1.6259430470
 C       -11.0545436768        0.6465128189       -7.5297125223
 C       -12.2229353677        2.8645028379       -8.0250302825
 C       -13.5616087156       -0.6697861169       -0.6378494358
 C       -15.6103132328        0.3329990717       -1.4722498937
 C       -13.8652990507        6.8041233751        1.0136222862
 C       -12.2515983993        6.3169706775       -1.0837898881
 C        -8.5323985303        3.2081199246        3.1576937445
 C        -9.4193056177        3.3722611160        5.5673050537
 C        -2.7385917169        7.0474789129        6.2242902329
 C        -1.4758844900        5.7681703961        4.4112221309
 H        -2.0318141536        2.8067408886        5.6086317240
 H        -0.8624371335        2.9687753934        6.9457801871
 H        -0.3848615304        3.7362534197        5.6213859069
 H        -5.4184413118        6.3871272520        5.3356317279
 H        -4.9553213688        5.2157826475        6.5087362768
 H        -6.7518691603        3.8094693738        6.0480961781
 H        -6.2059658097        3.8171123097        4.2833648115
 H        -9.1462292577        6.1486579598        2.1140324239
 H        -9.6327047090        7.1514004800        3.5526857767
 H       -10.8852596770        7.6902416537        1.5920208817
 H       -11.9553305203        6.9298054418        2.8300526323
 H       -15.1008548329        4.5387802223        1.7239966653
 H       -13.6320892523        3.6253967317        1.9335399267
 H       -15.7562558320        2.6764389712        0.0241862443
 H       -15.3872723596        2.0400414727        1.5731833939
 H       -14.6299527673        0.2766526710       -4.3196026662
 H       -13.5926104716       -0.8801213995       -3.5054051643
 H       -12.1169833414       -0.5884894341       -5.3507923017
 H       -11.6223169505        0.7476047579       -4.2227503738
 H       -11.5363140660        4.4839843321       -5.3742187285
 H       -10.4562021515        4.7288615508       -6.6882581416
 H        -9.3454977399        5.6557626152       -4.7264882914
 H        -8.4400934689        4.2101031443       -5.4710060440
 H        -6.5184741079        0.9327767806       -1.8202735034
 H        -6.3798401532        1.4640583095       -3.5413710085
 H        -7.8367445779        0.5148628504       -3.0464292656
 H        -6.6031773194        5.0396137020       -4.0348107074
 H        -6.9892944757        3.4385988069       -4.6068166790
 H        -5.9173548022        3.5973995612       -3.2462515911
 H        -8.6766142014        4.8304560612       -0.9005299970
 H        -7.9334811740        5.8777984509       -2.1476088068
 H        -6.9811641942        4.7814240242       -1.0870235752
 H       -11.8643624915        0.1581391764       -8.1341170250
 H       -10.7137990285        0.0574050995       -6.7156110423
 H       -10.2234834890        0.8921793152       -8.1082451698
 H       -11.9369683248        2.6129741950       -9.0207200742
 H       -11.7692370567        3.8415370566       -7.8405260963
 H       -13.2553958572        2.9852242034       -8.0164934335
 H       -14.2388228548       -0.9757641560        0.1724802231
 H       -12.5437386590       -0.6160946289       -0.2789853815
 H       -13.6255383828       -1.4379079333       -1.4000609368
 H       -16.0118461901       -0.3994881668       -0.7381055071
 H       -15.9159035335       -0.1200527304       -2.3930667713
 H       -16.0861158651        1.2685770896       -1.3964432639
 H       -14.8724431876        6.6737896032        0.6172186933
 H       -13.6436941430        7.9544453338        0.8439276404
 H       -13.8861998421        6.7464632207        2.0791860922
 H       -11.4741093337        5.6385556094       -1.4269542428
 H       -11.7377850788        7.2657771290       -1.1053627938
 H       -12.9770048001        6.3206168563       -1.8323034294
 H        -7.7811073320        2.5249514721        3.4848322598
 H        -8.0684509392        3.6754927132        2.3458714416
 H        -9.3957968301        2.6549865662        2.7813092205
 H        -9.4847661012        4.0706601364        6.3792080799
 H        -8.6182231507        2.6915084928        5.7932332235
 H       -10.3744336443        2.9418803413        5.3645049539
 H        -3.3158243833        7.1932301772        7.1275935240
 H        -2.9086797506        7.8989008302        5.6329708822
 H        -1.7153873547        7.1828715174        6.5257402258
 H        -1.3471454125        4.9225251121        3.7185062503
 H        -0.5610581357        5.8864097750        4.9589877420
 H        -1.5758782341        6.6921325584        3.7883658151
 Na      -11.0071461436        3.1784377870       -0.7943806856
