117

 C       -14.7668457551       -2.6430494752        4.8097958273
 C       -13.7988305110       -2.8422209603        3.6523011944
 O       -13.0058827453       -3.7221527473        3.6745671826
 C       -13.7585821101       -1.8490597307        2.3683935263
 C       -12.6629178155       -0.8361711610        2.6274982684
 O       -12.8402385539        0.2448331172        3.1798161676
 C       -11.2387279106       -1.2621211479        2.3037982568
 C       -10.1946749647       -0.1580891138        2.6981017578
 C       -10.5851154418        1.1859970719        1.9440406013
 O       -11.0228148608        1.0532836627        0.8126691620
 C       -10.4329387677        2.5428597149        2.5997115217
 C       -11.0386112254        3.5427576153        1.5879670676
 O       -10.3424551903        4.2809352483        0.9020772646
 C       -12.5719911716        3.6040795909        1.4240050442
 C       -13.0443177480        4.4267923236        0.2183484712
 C       -13.4746272928        5.9044284664        0.4114818036
 O       -13.8209309547        6.4664796509        1.4094070528
 C       -13.4803440956        6.7451308642       -0.9812446302
 C       -11.9521195382        6.9928115217       -1.0231514203
 O       -11.2311755897        6.1701658849       -1.5610937471
 C       -11.4063816267        8.1801438997       -0.3903408232
 C       -10.8259898059        7.8175773594        0.9825929181
 C        -9.6353338597        8.7582538054        1.2473407979
 O        -9.6864182121        9.9567989795        1.0199345169
 C        -8.2212299809        8.1512578315        1.6090043533
 C        -7.8195546385        7.4279421048        0.2876498355
 O        -8.1646521376        6.2447318455        0.1812310311
 C        -7.0272699684        8.1209605661       -0.8342538325
 C        -6.4304197172        7.0613117663       -1.7570350104
 C        -7.2564115225        6.7355940788       -3.0003265979
 O        -8.4182978318        6.9714047776       -3.2328961392
 C        -6.4799025337        5.7646085392       -4.1011913376
 C        -6.6088910219        4.3109248231       -3.5818448890
 O        -7.5402220934        4.0177715118       -2.9124156077
 C        -5.5883457888        3.2670809475       -4.0119250424
 C        -6.0267000417        1.8062074891       -3.9093332160
 C        -6.2021511296        1.4491229915       -2.3801131553
 O        -5.4579033893        1.9059879419       -1.5581872882
 C        -7.4736046630        0.6100770570       -1.9134052912
 C        -8.5727291678        1.8517645583       -1.8939210899
 O        -8.5434300843        2.6655197326       -0.9808590119
 C        -9.5696939981        1.9418841130       -2.9699775330
 C        -7.8376784071       -0.6520797913       -2.7646708720
 C        -7.1345115144        0.0400300224       -0.5693125866
 C        -7.2151891779        5.8373502715       -5.5609388324
 C        -5.0458848451        6.2092433548       -4.2914422951
 C        -7.3307236694        9.3026962315        2.1073158675
 C        -8.3121681829        7.1195267579        2.7467964610
 C       -14.0034145005        5.9835829046       -2.1964886288
 C       -14.3091265753        8.0422186033       -0.8124172190
 C       -11.2160924818        2.7315316892        3.9725593955
 C        -8.9511018513        3.0056938299        2.7487123667
 C       -13.4295550848       -2.6707848473        1.0239663607
 C       -15.1586951372       -1.1031812191        2.2386492708
 H       -15.7854872146       -2.7866699577        4.4128386792
 H       -14.5957872229       -1.6779298120        5.1407815952
 H       -14.5004851960       -3.3737524960        5.5453094832
 H       -11.2384103941       -1.3938059171        1.2636170452
 H       -11.1034334829       -2.2625130595        2.7395852870
 H        -9.2426895449       -0.4336650298        2.2247022343
 H       -10.0504498223        0.0406048586        3.7633742206
 H       -12.8792217044        4.0497443212        2.3601670587
 H       -13.1084503793        2.6256913890        1.5061007967
 H       -13.8125267661        3.8021209533       -0.2276481459
 H       -12.2469402168        4.2909979671       -0.5137306443
 H       -12.0964877155        8.9895223647       -0.3292376522
 H       -10.7052481947        8.7123151045       -1.0125590687
 H       -10.5863748384        6.7526462928        1.0595049537
 H       -11.6789454919        7.9407898610        1.6785102428
 H        -6.2723926037        8.8420201951       -0.4313022566
 H        -7.7672577163        8.6810707389       -1.3846177578
 H        -6.3316320696        6.1275058510       -1.1669774920
 H        -5.3735185977        7.3343187755       -1.9812791440
 H        -4.7132604241        3.4140352606       -3.3478705408
 H        -5.2304208026        3.4871496354       -5.0213133535
 H        -5.2768096290        1.1038081732       -4.3995187370
 H        -6.9860017075        1.6132672497       -4.4371686550
 H       -10.4500950477        2.4756262609       -2.6306517321
 H        -9.7788472495        0.9399501096       -3.4564817243
 H        -9.1378741768        2.6730237048       -3.7459006540
 H        -8.0156911299       -0.3413537149       -3.7369596398
 H        -8.7154031183       -1.1348175740       -2.3233105718
 H        -6.9846736702       -1.4166467916       -2.7485543486
 H        -6.4381363512       -0.7657196652       -0.6282674611
 H        -8.0144645135       -0.3758519945       -0.0731490249
 H        -6.7473487128        0.7301831286        0.1092958905
 H        -6.8333674251        5.1745054682       -6.3551604357
 H        -7.0895849898        6.8292737882       -5.9763977927
 H        -8.2887159807        5.4776523732       -5.4018227578
 H        -4.3864833352        6.0097430331       -3.5937417610
 H        -5.0520597817        7.3211658746       -4.4148407609
 H        -4.5981557018        5.9152053247       -5.2355861172
 H        -7.6848147181        9.5971349272        3.1240867665
 H        -7.4761775362       10.1554465433        1.4422373545
 H        -6.2611994659        9.0689311626        2.2597780972
 H        -8.6672955200        6.1739355859        2.4075488493
 H        -8.8468786106        7.5161731866        3.5704059403
 H        -7.2716960283        7.0520684466        3.1364717374
 H       -14.1027530879        6.6936288410       -2.9966173401
 H       -15.0251277386        5.4873179866       -2.0496976195
 H       -13.3628977485        5.1603830225       -2.3861536882
 H       -13.8905801774        8.8273507381       -1.4586016390
 H       -14.1831575762        8.3467202351        0.2582811356
 H       -15.3636782106        7.8976988137       -0.8711588712
 H       -10.6784809491        2.2571310592        4.7940981986
 H       -12.1519659031        2.3730544055        3.7373454564
 H       -11.3014329338        3.7886173793        4.1995643056
 H        -8.3704783006        2.8840665332        1.7731125682
 H        -8.5200317218        2.4046968895        3.5321505980
 H        -8.9676619841        4.0496619112        3.1110178999
 H       -12.8598264990       -2.0323800226        0.3320679882
 H       -14.3603544404       -2.9274250870        0.5345608542
 H       -12.8263977082       -3.5390039511        1.2188902498
 H       -15.9665573272       -1.7752099869        2.0520429078
 H       -15.1999158332       -0.4302842121        1.4487137714
 H       -15.2656691493       -0.5281343939        3.1211210262
 Na       -9.1878787140        4.9349606373       -1.2734576280
