117

 C       -14.5384122256       -2.4288754954        5.1813045517
 C       -13.6660403922       -2.6537001406        3.9138275950
 O       -12.7445414505       -3.3818019678        3.8840947967
 C       -14.0087924573       -1.8880051126        2.5054774549
 C       -12.9537422343       -0.7294248228        2.5749178333
 O       -13.2916816358        0.3998842628        2.9497744819
 C       -11.4500603691       -1.0136986213        2.3679638386
 C       -10.4889751948        0.1120493724        2.6772650007
 C       -10.5516675392        1.3843015323        1.7830649660
 O       -10.6026050047        1.3375459744        0.5861652404
 C       -10.4722240069        2.8079472090        2.4618618311
 C       -11.3123121379        3.7861875985        1.6343189218
 O       -10.7343170768        4.7095025422        1.0560808937
 C       -12.8472670755        3.6013426340        1.6070749941
 C       -13.4185676768        4.1624791332        0.3474543779
 C       -13.4761965634        5.6192035357        0.2949865444
 O       -13.7915219591        6.3103249958        1.2438176620
 C       -13.3362511738        6.4071594909       -1.1259418867
 C       -11.7065089131        6.5515781015       -1.2617941609
 O       -11.0785250772        5.6293358996       -1.7295300187
 C       -10.9220160106        7.8000104473       -0.9407486974
 C       -10.7707218299        8.1517824318        0.6086378869
 C        -9.5467100241        8.9677898930        1.1307104224
 O        -9.6326475375       10.1647636905        1.2988986352
 C        -8.2171756318        8.1856184392        1.5249863068
 C        -7.8134511890        7.2730390859        0.2808825118
 O        -8.1006673813        6.0813959205        0.2251951816
 C        -6.8772483217        7.9762281812       -0.8022497924
 C        -6.1497779446        6.9565311561       -1.7612883658
 C        -7.0190462615        6.6680489563       -3.0259192802
 O        -8.1679176255        6.9657678353       -3.0836745005
 C        -6.2801599614        5.7296009437       -4.1178625619
 C        -6.4819549182        4.2458004636       -3.5898211349
 O        -7.4454712876        3.9644027624       -2.9157820933
 C        -5.5409084691        3.1736266421       -4.1322156728
 C        -6.0797607425        1.7752530443       -3.9355638522
 C        -6.2834527925        1.4508253596       -2.4236014499
 O        -5.3671626321        1.5684844064       -1.6486896195
 C        -7.7150079923        0.8084428558       -1.9456173764
 C        -8.7076528806        1.9310066818       -1.5743134645
 O        -8.3925947939        2.5996208380       -0.6006522025
 C       -10.0288235222        2.0830736417       -2.3291836907
 C        -8.1622024381       -0.1865978597       -3.0234577496
 C        -7.4486844855       -0.0533466467       -0.6342960834
 C        -7.0622668199        6.0105625313       -5.4103121448
 C        -4.8363472551        6.0839904555       -4.4280581042
 C        -7.0953166960        9.2927712430        1.8232628797
 C        -8.4897207400        7.3679736685        2.7862984922
 C       -13.8858046146        5.6798074437       -2.3545990404
 C       -14.0378124713        7.7744670025       -0.9117666785
 C       -11.1098793577        2.8769765304        3.9270527450
 C        -9.0324901954        3.2293210302        2.4878099565
 C       -13.7283950647       -2.8221114487        1.3424190617
 C       -15.4321206825       -1.2742908859        2.4194311138
 H       -15.5558879717       -2.7288365255        4.8375537969
 H       -14.5741424531       -1.3811926675        5.3799573580
 H       -14.1423554814       -3.0773939140        5.9537333968
 H       -11.3398205194       -1.3488683927        1.3331510525
 H       -11.2620382255       -1.9119133914        3.0265628779
 H        -9.4528839149       -0.2522677461        2.5682808735
 H       -10.5472281984        0.4686000596        3.7398968851
 H       -13.4092827348        4.0574089707        2.4008347988
 H       -13.0081832339        2.5079518289        1.7298294511
 H       -14.4568871473        3.7422976640        0.1613843479
 H       -12.7432869325        3.7696961468       -0.4608816185
 H       -11.3043360823        8.6162149640       -1.5619638966
 H        -9.8859750778        7.7574682717       -1.3565391510
 H       -10.8819704717        7.2071771507        1.0809353704
 H       -11.6759879577        8.6131732692        1.0054147883
 H        -6.1378487860        8.6849769255       -0.2467352378
 H        -7.4863085435        8.5546606908       -1.4491095238
 H        -5.9774779476        6.0164840781       -1.2565901608
 H        -5.1280513083        7.3303633295       -1.9655572648
 H        -4.5601007292        3.2688296670       -3.6721584360
 H        -5.3400930055        3.3101088480       -5.1754509910
 H        -5.3087609570        1.0583364273       -4.3059694038
 H        -7.0223446608        1.6635590143       -4.4659828013
 H       -10.7869172508        1.3758112362       -2.1036296544
 H        -9.7300501361        1.8699878405       -3.3873693796
 H       -10.4837608077        3.0779794880       -2.1489194854
 H        -8.4248042526        0.3435663965       -3.8763366888
 H        -8.9613625803       -0.8158300552       -2.6698094034
 H        -7.2399618093       -0.7940249486       -3.2419479808
 H        -6.6816687102       -0.7991803207       -0.8478325632
 H        -8.3085739115       -0.5098193375       -0.2596708668
 H        -7.0774980212        0.4884130306        0.2147128606
 H        -6.8965181741        5.1286840069       -6.0804406717
 H        -6.7346882857        6.9560503159       -5.8981282822
 H        -8.1280977434        6.2035172176       -5.2357384979
 H        -4.1794528431        6.0473005043       -3.5820356074
 H        -4.7179179813        7.0498672131       -4.9679184442
 H        -4.3858886854        5.4334719320       -5.1628355703
 H        -7.3622939304        9.8031740949        2.7475917818
 H        -7.1254701435       10.0278909829        1.0771485140
 H        -6.1078257634        8.9461816591        1.9114171388
 H        -9.2468557649        6.6566349011        2.6600525143
 H        -8.7664100162        8.0675767198        3.5541014495
 H        -7.5635178626        6.8044979819        3.0458075178
 H       -13.7632448715        6.2848937480       -3.2341529984
 H       -14.9539803986        5.4160077992       -2.0861794795
 H       -13.4409858136        4.6861403419       -2.5207690495
 H       -13.9067450265        8.5129772849       -1.7771925069
 H       -13.6306428635        8.2416177161       -0.0661069840
 H       -15.1397559943        7.6405396908       -0.7867291092
 H       -10.5863290630        2.2113185084        4.6379887876
 H       -12.1569172251        2.7291846331        3.8745408650
 H       -10.9770820670        3.9095093448        4.1440977196
 H        -8.6412078209        3.3762383243        1.4583667217
 H        -8.4177564204        2.4525297471        2.8533942921
 H        -9.0764988710        4.1428449875        3.0758101464
 H       -14.0406131767       -2.3826638400        0.3624390927
 H       -14.3829737262       -3.6934213351        1.5256844266
 H       -12.6802565319       -3.0924920637        1.2911205620
 H       -16.2061854572       -2.1046394416        2.3700698799
 H       -15.5320179769       -0.6261625759        1.5359390864
 H       -15.5925962111       -0.6649499692        3.3220328959
 Na       -9.1159199107        4.6313464896       -1.1095595732
