117

 C       -14.5257186844       -2.3360752680        5.2479630982
 C       -13.6082231527       -2.5511443353        4.0110014681
 O       -12.5916707115       -3.2534057183        4.0797212097
 C       -14.0486738503       -1.8178240089        2.6698693088
 C       -13.1052987820       -0.5427814586        2.4986324297
 O       -13.4222471745        0.5912815561        2.6551453090
 C       -11.6320913771       -0.9181367942        2.1273413331
 C       -10.5692490697        0.1250411243        2.7602036905
 C       -10.5526040860        1.4546983455        1.9070996644
 O       -10.7534366499        1.3041452920        0.7060401006
 C       -10.5058918656        2.8854146890        2.5136277760
 C       -11.4629018245        3.8866352592        1.5738719404
 O       -11.0085281284        4.8077576691        0.9544189852
 C       -12.9699767665        3.4836201699        1.5711489997
 C       -13.5571966418        4.1037426583        0.2640229869
 C       -13.4012098049        5.6538088683        0.2660458962
 O       -13.7142127155        6.1909180617        1.2971146912
 C       -13.1278067963        6.4559394399       -1.1113269456
 C       -11.6117252054        6.3490529328       -1.3923888693
 O       -11.0588663875        5.3066862913       -1.7725036401
 C       -10.6904319576        7.6297434465       -1.1689455055
 C       -10.6394576242        7.9415695433        0.3264737494
 C        -9.5857023930        8.8554319210        0.9338232822
 O        -9.8241399354       10.0330850000        1.1387000770
 C        -8.1771473173        8.3009694016        1.4356354638
 C        -7.6449460423        7.3057915442        0.2938347005
 O        -7.9366593811        6.1319062565        0.3620958801
 C        -6.7182751446        7.9370485742       -0.7443537711
 C        -6.0388303329        6.9722605642       -1.7036120522
 C        -6.9300230891        6.6212511853       -2.8765966876
 O        -8.1159903144        6.9668515917       -2.9497128210
 C        -6.3200911970        5.7176581828       -3.9826915298
 C        -6.5662732422        4.2668611321       -3.6137381696
 O        -7.5314328493        3.9244225520       -2.9479102457
 C        -5.5176387659        3.1419224894       -3.9394149114
 C        -6.2869079272        1.7934879251       -4.0292399330
 C        -6.4206342616        1.3403943483       -2.5338131351
 O        -5.5479975034        1.6228891082       -1.7555125404
 C        -7.7467020519        0.7156973974       -2.0156673628
 C        -8.6985303699        1.8695985515       -1.5150242434
 O        -8.2700622953        2.6266223060       -0.6367379815
 C       -10.0781970631        2.0168927476       -2.1582586744
 C        -8.4791637325       -0.1976012066       -3.0465257686
 C        -7.2813625968       -0.0763323626       -0.7532147966
 C        -7.0920727671        5.7556220960       -5.3786451056
 C        -4.8137515048        6.0523546610       -4.0991279561
 C        -7.2372317538        9.4389938886        1.8028231288
 C        -8.5634674938        7.4559788561        2.6391215840
 C       -13.7821280471        5.6181896503       -2.2375178554
 C       -13.5660344596        7.8819609979       -1.0928453174
 C       -10.9290232463        2.8745891237        3.9904290720
 C        -9.0441016120        3.4612881266        2.4709044847
 C       -13.7625161351       -2.8547472904        1.4238666571
 C       -15.5096492629       -1.3922803086        2.7147551639
 H       -15.4350499636       -2.8642681162        5.1682215467
 H       -14.7263551925       -1.2779631634        5.2723673732
 H       -13.9122661536       -2.7041796662        6.0503249853
 H       -11.5892895588       -0.8496473492        1.0496341049
 H       -11.3537220218       -1.9040353196        2.4116524792
 H        -9.6300051658       -0.4496847813        2.6629207519
 H       -10.6263006168        0.3318017915        3.7875973652
 H       -13.5950148454        3.8700270973        2.4252476505
 H       -12.9396276997        2.3918369524        1.6158122720
 H       -14.5948334981        3.9968085720        0.1637589685
 H       -13.0197648590        3.5698842723       -0.4551392962
 H       -10.9279379535        8.5820958037       -1.6704583277
 H        -9.6435328704        7.4499202040       -1.4297086904
 H       -10.7662258803        6.9612264383        0.8483233108
 H       -11.5895864914        8.3656938228        0.6666235734
 H        -6.0473807058        8.4754071669       -0.2161292840
 H        -7.3361229346        8.6625023935       -1.3583248494
 H        -5.8255938648        6.0478849656       -1.0945324263
 H        -5.0507688852        7.3497270825       -1.9603691529
 H        -4.7659026034        3.1278081076       -3.1202513598
 H        -4.9218060462        3.3674711679       -4.8721363286
 H        -5.8376406520        1.0506667463       -4.6818030435
 H        -7.3246748458        2.0536535286       -4.3399972228
 H       -10.4958452991        1.0053925990       -2.4738682986
 H       -10.2152300824        2.6649931813       -3.0110775352
 H       -10.6668184761        2.2610129291       -1.2653913886
 H        -8.8343468753        0.5023756983       -3.8482358962
 H        -9.3281747699       -0.6678557625       -2.5360259647
 H        -7.7984331675       -0.8928510319       -3.4564699510
 H        -6.5654824619       -0.8154675328       -0.9731133801
 H        -8.1554971527       -0.5648418311       -0.1880210229
 H        -6.8107426551        0.5194474058       -0.0092653779
 H        -6.4831943801        5.4094545754       -6.1742313045
 H        -7.6048654268        6.6917710159       -5.4937802736
 H        -8.0631070168        5.1934514054       -5.3145958294
 H        -4.1998891751        5.6492336714       -3.3408694773
 H        -4.6889338108        7.1295987578       -4.0622588858
 H        -4.3673975035        5.7180448921       -5.0716855994
 H        -7.5283823129        9.8338547915        2.7641907029
 H        -7.1378930799       10.3160894800        1.1123167910
 H        -6.1887203837        9.0015535364        1.8776386564
 H        -8.9701354437        6.4787110102        2.2652580915
 H        -9.3360862618        7.8985228995        3.2770861706
 H        -7.6973087236        7.1497778330        3.1688939426
 H       -13.4184353301        6.0736850640       -3.1934190620
 H       -14.8420375821        5.6391049691       -2.1434894484
 H       -13.4546747209        4.6032065432       -2.3148134284
 H       -13.2714651371        8.4471169358       -1.9099199501
 H       -13.2323343062        8.4419973625       -0.1479175261
 H       -14.6163589363        7.8367046008       -1.1906830425
 H       -10.1643402167        2.3303069192        4.4705608223
 H       -11.8788616500        2.3638746480        4.1355699720
 H       -10.9586083047        3.9310816519        4.2994181766
 H        -8.5576603637        3.2365646846        1.5441058614
 H        -8.4219547544        2.9020110931        3.2009033026
 H        -9.1822627056        4.5091701002        2.6762299167
 H       -13.5198710093       -2.2935618929        0.5430698929
 H       -14.6467820207       -3.4268354696        1.2074563000
 H       -12.9239496305       -3.5321600335        1.6694794224
 H       -16.0616903939       -2.2443088812        2.8916127781
 H       -15.7610046453       -0.8868858937        1.8130188214
 H       -15.7154097835       -0.7644765781        3.5546176856
 Na       -8.9157473262        4.8488791513       -1.1649191226
