117

 C        -1.3357492057        3.4678037207        5.9892667535
 C        -2.2770172317        4.5625660177        6.4315380845
 O        -2.7215438074        4.6323393886        7.5959834588
 C        -2.5200704307        5.7303248578        5.4260752354
 C        -3.9010478852        5.3159975493        4.6823702979
 O        -3.8249799072        4.8171869594        3.6005157642
 C        -5.2758627058        5.3656809490        5.5013292311
 C        -6.3859850139        4.4178266983        5.0701184648
 C        -7.7211627878        5.1944941658        4.6199098434
 O        -7.7812446148        6.3845560060        4.3997904304
 C        -8.9380439080        4.3232730363        4.3745382377
 C       -10.1901510492        5.1236107563        3.7979708786
 O       -11.3509094181        4.8315117900        4.0975672071
 C        -9.8783542813        6.3316816449        2.8969699697
 C       -11.1326466965        6.7522914347        2.1097201967
 C       -11.5666779324        5.6631665663        1.1648611077
 O       -10.7092594383        4.7702653360        0.9875693912
 C       -12.9378827113        5.8022372030        0.3206305970
 C       -13.7649263431        4.4880420310       -0.0089086033
 O       -14.1239169201        4.2637659490       -1.1489782803
 C       -14.6047707420        3.7214564548        1.1570622399
 C       -14.9868723687        2.2849059297        0.6699839813
 C       -13.8504196639        1.6834234892       -0.0194804813
 O       -12.6835400555        2.0148085705        0.2823512246
 C       -14.1218093698        0.5911483182       -1.0593114036
 C       -13.3430672394        1.0349916096       -2.3732081532
 O       -12.4376310464        1.8413462170       -2.4433093669
 C       -13.6035038588        0.2600878136       -3.6426393807
 C       -12.5656084282        0.3942157831       -4.8603973076
 C       -12.8668969828        1.4440500653       -5.9068628197
 O       -13.9332664795        2.0583587760       -5.9856506684
 C       -11.6312873414        1.9557296577       -6.8424158066
 C       -10.5141270035        2.5604011671       -5.9252165976
 O        -9.6377590588        1.8671063649       -5.4212087468
 C       -10.4374542849        4.1147366419       -5.7616884819
 C        -9.2552667949        4.5758872563       -4.9125185135
 C        -9.3604741291        4.0142155994       -3.4943755487
 O       -10.3643850529        3.9181323370       -2.8548449997
 C        -7.9142596050        3.6453323808       -2.8325831241
 C        -8.0783596490        2.2486605532       -2.1426314340
 O        -8.9214648980        2.1301724212       -1.2664315851
 C        -7.2009615524        1.0935658413       -2.6240792554
 C        -6.7491591962        3.7633542100       -3.7733526098
 C        -7.8036061430        4.7414410210       -1.6607262707
 C       -10.9996330176        0.6311748529       -7.5878310334
 C       -12.1190594290        2.9514526790       -7.9410129507
 C       -13.5632239544       -0.7828992635       -0.6410226753
 C       -15.6132207046        0.3840251300       -1.4164892781
 C       -13.8920499582        6.6935409449        1.0382176972
 C       -12.5205885894        6.4055035222       -1.0738587141
 C        -8.4507179325        3.4293570573        3.1883568691
 C        -9.3206964667        3.5782183397        5.6404549335
 C        -2.7083738147        7.0834134485        6.1256896338
 C        -1.5100392280        5.9156349681        4.2852416715
 H        -1.6588139255        2.8237719299        5.1782324926
 H        -0.9695253997        2.8237809229        6.8699023726
 H        -0.3288572180        3.8914113765        5.7968038360
 H        -5.5897790094        6.3453762760        5.4115418178
 H        -5.0237400082        5.2300189153        6.6030341461
 H        -6.8254775051        3.9430590794        5.9701262874
 H        -6.1503628820        3.6347484575        4.2210288325
 H        -9.0824099887        6.2251446960        2.1709903191
 H        -9.6507200083        7.1914810955        3.5814801299
 H       -10.7252822867        7.5672064793        1.4790971159
 H       -11.9294839639        7.0180637266        2.7486049680
 H       -15.4535042548        4.3774519600        1.4086223572
 H       -13.9411349450        3.6290753113        2.0531996456
 H       -15.8204125110        2.4737560019       -0.0552332047
 H       -15.4299842452        1.6411349985        1.4668594111
 H       -14.5340100312        0.6512202261       -4.0117853945
 H       -13.8712141882       -0.8012607991       -3.5294425369
 H       -12.5741218219       -0.5319826374       -5.4560508744
 H       -11.5332215106        0.4752634374       -4.4427735549
 H       -11.4065442342        4.5144608615       -5.3308580897
 H       -10.3066889798        4.7061218270       -6.6968307264
 H        -9.1914037213        5.6839629248       -4.9268492365
 H        -8.3819951626        4.0925412063       -5.3653327844
 H        -6.5207881755        0.8472659142       -1.8191769764
 H        -6.5763682802        1.3656116656       -3.5535343703
 H        -7.8739708149        0.2844800694       -2.9436726283
 H        -6.8733250388        4.7472723296       -4.2184898102
 H        -6.8282378891        3.0469467437       -4.6906167555
 H        -5.8155122243        3.6736769437       -3.2807818131
 H        -8.3652314513        4.5264931296       -0.8176257527
 H        -8.1224926465        5.6496408692       -2.1203729445
 H        -6.8235372626        4.8413430421       -1.2873949678
 H       -11.8091451767        0.2184794207       -8.1620022088
 H       -10.6252811175       -0.0824587958       -6.8116133100
 H       -10.2077877717        0.9576552104       -8.2598306470
 H       -12.4077383374        2.5525519671       -8.9166375867
 H       -11.3142637446        3.6165475378       -8.0820910243
 H       -12.9769632848        3.5172014485       -7.6104925185
 H       -14.1393796996       -1.1382120958        0.1943869676
 H       -12.4942549694       -0.7748095518       -0.3116982482
 H       -13.7497199483       -1.4909597197       -1.4811460825
 H       -16.0789884252       -0.1744581594       -0.6415402235
 H       -15.7546375072       -0.2987380998       -2.2570063595
 H       -16.2235132816        1.3416698122       -1.5424932697
 H       -14.7756644764        7.0341489787        0.4421791525
 H       -13.5018703563        7.5990281985        1.5385722186
 H       -14.2402176283        6.1289096083        1.9477983090
 H       -11.8746234709        5.7347411401       -1.6491818625
 H       -11.9159677481        7.3010588610       -1.0060766313
 H       -13.3735012572        6.6286341299       -1.6979182773
 H        -7.8695475729        2.5670817368        3.5228897063
 H        -7.7527657593        3.9598959219        2.5569674496
 H        -9.2451282577        3.0666876582        2.5692143726
 H        -9.1590411080        4.2828881025        6.4518037321
 H        -8.7542640589        2.6637517211        5.7331031448
 H       -10.3993516716        3.4040603282        5.5404113865
 H        -3.3390949317        6.9919899046        7.0313738736
 H        -3.1430174351        7.9104261135        5.5306714630
 H        -1.8106565318        7.4647701949        6.4838232091
 H        -1.1270508455        4.9849348032        3.7712906825
 H        -0.6005193386        6.4636519908        4.7165583343
 H        -1.9529258838        6.4976402340        3.4727664795
 Na      -10.9908225145        3.1457968629       -0.7517734391
