117

 C       -14.3549296428       -2.2468699420        5.4249775534
 C       -13.5490743364       -2.4278955682        4.1361714444
 O       -12.4396507479       -2.9545353338        4.1310006767
 C       -14.0509878525       -1.7867676391        2.7980675885
 C       -13.1075510981       -0.5493756471        2.5007306365
 O       -13.6010365679        0.6086893432        2.4374009573
 C       -11.6730139092       -0.7751578799        2.1677511016
 C       -10.8320370695        0.2756510175        2.7812122941
 C       -10.7722541282        1.5018556233        1.9367110363
 O       -10.8470194604        1.4592287450        0.7204660219
 C       -10.6379574332        2.8792685255        2.5908709384
 C       -11.4971091184        3.8146003598        1.6507035278
 O       -10.9034389915        4.6499211332        0.9405204778
 C       -13.0384862708        3.5163806935        1.5054917407
 C       -13.5385046827        4.1905904180        0.2098172052
 C       -13.3102688355        5.6633673222        0.1470371695
 O       -13.4205145928        6.4164284407        1.0984666830
 C       -13.0006943105        6.3565526440       -1.2276573778
 C       -11.4353984933        6.1544638413       -1.4339812163
 O       -11.0711359899        5.0454588978       -1.8044619354
 C       -10.5758870411        7.2527730154       -1.0428726450
 C       -10.6108551044        7.5792153282        0.5644432010
 C        -9.6651859917        8.7794547257        0.8806631248
 O        -9.9786513557        9.8955091155        0.6075244907
 C        -8.2559542722        8.3910694620        1.4553007525
 C        -7.4662744915        7.4735727704        0.4459854802
 O        -7.6545424374        6.2646063323        0.3970435996
 C        -6.5191726355        8.1222660016       -0.6104704122
 C        -5.9735612904        7.0193691978       -1.5433133395
 C        -6.8576698878        6.5985150071       -2.7361888874
 O        -8.0416555695        6.8727482495       -2.9098819485
 C        -6.2526057223        5.7270664713       -3.8426989620
 C        -6.6453383135        4.1659550708       -3.6419199444
 O        -7.6172844404        3.8853047317       -2.9271346889
 C        -5.7821848406        3.1067360873       -4.3349118760
 C        -6.3846385281        1.7159487377       -4.0354606873
 C        -6.5101967361        1.2276812297       -2.5286453327
 O        -5.6644576749        1.6113111082       -1.7578377326
 C        -7.8626980387        0.4624584297       -1.9428282392
 C        -8.6881004853        1.8236820488       -1.5119037083
 O        -8.1317373781        2.6291657328       -0.7936722992
 C       -10.1422013586        2.0742795783       -2.0185067371
 C        -8.4833997231       -0.3475189928       -3.0863458409
 C        -7.4956359987       -0.4019520359       -0.7457385769
 C        -7.0156972887        5.9646276017       -5.1718208497
 C        -4.7267788160        5.9223882919       -4.1938497344
 C        -7.4615547755        9.6566107288        1.8222975079
 C        -8.5567307358        7.5466397223        2.7381666221
 C       -13.7637819723        5.7029239207       -2.4257372020
 C       -13.5076715315        7.8071054134       -1.1573167859
 C       -11.0631519307        3.0587858837        4.0871348592
 C        -9.1500191608        3.3230433606        2.2948665112
 C       -13.8187815810       -2.8210845440        1.6905321764
 C       -15.5031604665       -1.3019879079        2.7992936916
 H       -15.2802407942       -2.8416827641        5.2186150034
 H       -14.6792266930       -1.1872645948        5.4475917954
 H       -13.7888942556       -2.6692826610        6.2490700791
 H       -11.6737805210       -0.8396243591        1.0445942819
 H       -11.3277871791       -1.7428058283        2.6300729663
 H        -9.8977372498       -0.1739607969        3.0820558013
 H       -11.2519274925        0.6124041500        3.7958651423
 H       -13.5615846980        3.8597156251        2.3659616498
 H       -13.2059409333        2.4340539624        1.3288486806
 H       -14.6614173914        4.0053417456        0.1201611768
 H       -12.9286014978        3.5882595290       -0.5140960324
 H       -10.9413405443        8.2195105392       -1.4268412543
 H        -9.5215639588        7.1134495952       -1.3297965307
 H       -10.3358593388        6.6908062606        1.0710601676
 H       -11.6173115054        7.7015403230        0.9785846916
 H        -5.5935604235        8.6575032979       -0.0582839309
 H        -7.0482374483        8.8593507688       -1.1579529120
 H        -5.6786983165        6.2195385629       -0.9146582266
 H        -5.0159327978        7.3960624586       -1.9311200856
 H        -4.7941753233        3.1676564763       -3.8731313556
 H        -5.6104778614        3.2654463095       -5.3768900503
 H        -5.7216056617        0.9346368785       -4.4002488032
 H        -7.3176077545        1.6393930213       -4.5218051122
 H       -10.3772442357        1.3662803631       -2.7722323543
 H       -10.0035781963        2.9767069471       -2.6047170322
 H       -10.8607203411        2.2227958199       -1.2343917224
 H        -8.6173280254        0.2621803162       -3.9621193710
 H        -9.4234421701       -0.7601468556       -2.7624184446
 H        -7.7340789514       -1.1350736950       -3.3059234927
 H        -6.7365222468       -1.2242297760       -0.9833422973
 H        -8.2832962592       -0.8504821406       -0.2286867208
 H        -6.9235214529        0.2055071580        0.0288702599
 H        -6.3038666016        5.7060043931       -5.9665796898
 H        -7.5176978026        6.9201903172       -5.1991712275
 H        -7.8628258647        5.4331352217       -5.3151712472
 H        -4.0035225067        5.6454917553       -3.2764893903
 H        -4.4988437639        6.9671591940       -4.3969913693
 H        -4.3914329864        5.2952046824       -4.9883484821
 H        -8.1336516339       10.4315368687        2.2694451263
 H        -6.9823056628       10.1290102839        0.9796273050
 H        -6.6502381082        9.4116493751        2.4594112058
 H        -8.9618382132        6.5363226410        2.6445468169
 H        -9.2996963959        8.1359694884        3.3346562157
 H        -7.5700513558        7.4531948241        3.2887527268
 H       -13.8855938914        6.4482610620       -3.1611649741
 H       -14.7741604134        5.4131855469       -2.1099258303
 H       -13.2125612636        4.9058682383       -2.9792677379
 H       -13.0277863486        8.3366284172       -2.0233417204
 H       -13.1836122152        8.2899029438       -0.3227837639
 H       -14.5728822689        7.9696698183       -1.3682901500
 H       -10.3286015323        2.4820958822        4.7280859470
 H       -12.0423675287        2.5322252611        4.1515808190
 H       -11.1089410234        4.1140465354        4.3069323246
 H        -8.9024200919        3.0330443422        1.2716084803
 H        -8.5187773638        2.7128927036        2.9231790236
 H        -9.0333907378        4.3955946721        2.4662655467
 H       -13.6965444078       -2.3013639322        0.7389545357
 H       -14.6903567138       -3.4818536844        1.6294427086
 H       -12.9936606473       -3.4450592609        1.9316358016
 H       -16.2461518253       -1.8742145804        3.4182143083
 H       -15.7433032837       -1.1125084434        1.7475570870
 H       -15.4910849009       -0.3112532758        3.2626186822
 Na       -8.7756271991        4.9696708513       -1.2292954419
