117

 C       -14.3192772538       -2.1994175804        5.4762940888
 C       -13.4813957602       -2.3097496032        4.1891751452
 O       -12.3573305965       -2.8352532280        4.1954093031
 C       -14.1061092818       -1.7378884552        2.7884258585
 C       -13.1946921811       -0.5567750091        2.4234879107
 O       -13.5967655263        0.5861374986        2.4062759841
 C       -11.6959134708       -0.8813186691        2.2925243591
 C       -10.8407177553        0.2465753619        2.8998888240
 C       -10.8823534121        1.5050816944        1.9874594117
 O       -10.9023516026        1.3856635151        0.7720640971
 C       -10.6773932689        2.9592478650        2.5450858936
 C       -11.4686725434        3.8865868623        1.6260976901
 O       -10.9694858466        4.6520655356        0.8274735427
 C       -12.9897075662        3.6165897492        1.5550715211
 C       -13.5101240653        4.2012630676        0.1539265766
 C       -13.3092543555        5.7317994453        0.0784797361
 O       -13.2918991671        6.4580835762        1.0647511123
 C       -13.0220629748        6.3596612579       -1.4086882102
 C       -11.5193447639        6.1218573594       -1.3928421450
 O       -11.0330453518        5.0692601210       -1.8188598097
 C       -10.6936115832        7.2257381947       -0.9152510827
 C       -10.6270435675        7.5013800629        0.5955488406
 C        -9.6445398930        8.6174971040        0.7849845032
 O        -9.9504168554        9.7151677431        0.3621212136
 C        -8.1577065361        8.4811568158        1.5227895152
 C        -7.4370138002        7.5337899821        0.4735117947
 O        -7.6739821768        6.3387480892        0.5477705484
 C        -6.5344874568        8.1213087410       -0.6119981399
 C        -5.8236950880        7.0968762039       -1.5788990646
 C        -6.7340684793        6.5740725207       -2.7374682243
 O        -7.9220885095        6.8963457218       -2.6582479413
 C        -6.2558630591        5.6244500201       -3.9678878069
 C        -6.5990426517        4.1580387700       -3.6870304677
 O        -7.5991849521        3.8847487637       -2.9936380558
 C        -5.9511873895        2.9411336106       -4.3488174971
 C        -6.4936284272        1.5295414874       -4.0386198276
 C        -6.5354603164        1.2514529960       -2.5005211231
 O        -5.7102695592        1.5124772018       -1.6600278634
 C        -7.8259111325        0.5278135044       -2.0081088118
 C        -8.6673529896        1.7413415015       -1.5833451405
 O        -8.1592249011        2.5219116331       -0.8317828969
 C       -10.0222523918        1.9999185542       -2.1656711277
 C        -8.5392164862       -0.2804648068       -3.1418795019
 C        -7.4959680148       -0.2746427315       -0.7649599506
 C        -7.0099887115        6.1886526325       -5.2507577074
 C        -4.7010112727        5.8578945735       -4.1069798047
 C        -7.5796829044        9.8342532440        1.8409279883
 C        -8.4163252378        7.6545352742        2.8418756560
 C       -13.7868824750        5.6135209529       -2.5593452983
 C       -13.4098543566        7.8176345024       -1.2654992080
 C       -11.1293934819        3.2209790639        4.0061179689
 C        -9.1290495636        3.2455332255        2.4335621755
 C       -13.9257548720       -2.9218787007        1.7471704827
 C       -15.6011163374       -1.2752638602        2.8910614374
 H       -15.2248069804       -2.7529355516        5.3982602372
 H       -14.5699508789       -1.0943992338        5.5069184727
 H       -13.6622018576       -2.5545149457        6.2748712318
 H       -11.5464954625       -0.8691068229        1.1511473253
 H       -11.4387911797       -1.8270475749        2.6762754839
 H        -9.7756493165       -0.0279039089        2.9012363054
 H       -11.0355807253        0.4701781131        3.9896898195
 H       -13.4492525819        4.2523384879        2.3375567465
 H       -13.2857532898        2.5805705130        1.6176215668
 H       -14.6120356904        3.9959821113        0.2849640629
 H       -13.0592212027        3.5383728245       -0.5986575107
 H       -11.0016958300        8.2058294532       -1.3000292534
 H        -9.6787765601        6.9831247032       -1.1890889952
 H       -10.3524748226        6.5558463376        1.0825029478
 H       -11.5828830122        7.7312907684        1.0478531437
 H        -5.7171038304        8.5747448886       -0.0281697750
 H        -7.0347161934        8.9423648623       -1.1461761326
 H        -5.4321055578        6.3182970392       -0.9497529244
 H        -4.9050684181        7.6322606830       -1.9135271704
 H        -4.8751323986        2.9447331522       -4.2295724024
 H        -6.0846361922        3.0819631582       -5.3943034947
 H        -5.9117277377        0.7466549964       -4.5433847354
 H        -7.5400266760        1.4812301156       -4.4058249133
 H       -10.3993933617        1.0995900402       -2.7460137208
 H        -9.9712222451        2.8138525884       -2.8586760591
 H       -10.6084999741        2.3057306374       -1.3013660947
 H        -8.8637389291        0.3098459761       -4.0576732721
 H        -9.4020771493       -0.6814793149       -2.6446565252
 H        -7.9229675212       -1.0565400230       -3.4207372995
 H        -6.9126428565       -1.1436690430       -0.9067250702
 H        -8.4076801188       -0.6033825010       -0.2499953393
 H        -6.9382442232        0.3006519194       -0.0479181903
 H        -6.5300447405        5.7641263367       -6.1332559919
 H        -7.0057823402        7.2977961278       -5.1922365029
 H        -8.0866909641        6.0520582165       -5.3243720630
 H        -4.1706142029        5.7871087888       -3.1345697320
 H        -4.5271363782        6.8496041518       -4.4317463837
 H        -4.2052205632        5.1204646195       -4.7255715058
 H        -8.3457149006       10.4786956276        2.1591093339
 H        -7.1468317687       10.2918230003        0.9763993660
 H        -6.7994811799        9.7905423926        2.5522338295
 H        -8.7952150554        6.6488108554        2.5517530246
 H        -9.2379396890        8.0956357124        3.4357803026
 H        -7.5507994388        7.5117952757        3.4270702250
 H       -13.9749421028        6.2614165732       -3.4617257270
 H       -14.7375374590        5.2375703609       -2.2778223662
 H       -13.0806591837        4.8132511347       -2.9249887630
 H       -13.1192689006        8.4708996846       -2.0637269544
 H       -12.9677825559        8.2407412937       -0.2823996432
 H       -14.5141342027        7.9089011723       -1.2372021040
 H       -10.5637159710        2.5227899618        4.5929452378
 H       -12.2231666370        3.0074170282        4.1342227405
 H       -10.8136132327        4.2234417509        4.2612133709
 H        -8.8719835852        3.1783980608        1.4034475545
 H        -8.6180577775        2.3967832577        2.9920717703
 H        -8.8369836697        4.2287070326        2.8245117124
 H       -14.1054616842       -2.5347794605        0.7550131767
 H       -14.5264515853       -3.8294864172        1.9444349654
 H       -12.8862702681       -3.2650606683        1.8760290106
 H       -16.2362172866       -2.0410998820        3.3519972422
 H       -15.8341509290       -1.0878484588        1.8052405376
 H       -15.7752371105       -0.3200973594        3.4526172396
 Na       -8.7555912555        4.8702074928       -1.1883662997
