117

 C       -14.3173931294       -2.0987632914        5.5240976474
 C       -13.5200603788       -2.2203377791        4.2185673795
 O       -12.4311589274       -2.7070134872        4.2543347681
 C       -14.0834609133       -1.7828534607        2.8458522001
 C       -13.1818597488       -0.5594832554        2.4532327036
 O       -13.6242406494        0.5386595981        2.3860824170
 C       -11.6360405666       -0.8872708565        2.2832930447
 C       -10.8253321992        0.2793664395        2.9463358087
 C       -10.8610560373        1.5083390356        2.0379936435
 O       -11.0110619000        1.2772679795        0.8421944150
 C       -10.6501637260        2.9652929958        2.5214737553
 C       -11.4731209381        3.8977517431        1.4670809678
 O       -10.8798002074        4.6307349457        0.7198352269
 C       -12.9956955862        3.8082956323        1.5565231814
 C       -13.6398364988        4.2224888405        0.1497203248
 C       -13.4211787997        5.6922926158        0.0301446647
 O       -13.2645109068        6.4076550585        0.9905020923
 C       -13.1116048388        6.2748641598       -1.3933894725
 C       -11.5214360769        6.1676698652       -1.4656291747
 O       -11.0282380462        5.1173855002       -1.8898072307
 C       -10.5783256068        7.3069280125       -0.8833332943
 C       -10.4676806857        7.4512355821        0.6567080046
 C        -9.6280392583        8.6418327323        0.7895199288
 O        -9.8076628905        9.6750467176        0.1488039780
 C        -8.2180396694        8.4887154901        1.5061046445
 C        -7.4047708750        7.5128324328        0.5087103123
 O        -7.7112511642        6.3315817380        0.5603714588
 C        -6.4500193368        8.1111044540       -0.6075173747
 C        -5.7273186503        7.1231328587       -1.6113255540
 C        -6.7184253975        6.5764016975       -2.6225317895
 O        -7.8955493387        6.8298595065       -2.5115038671
 C        -6.1515857112        5.7336386998       -3.9008342889
 C        -6.7075303662        4.1604374961       -3.7451476224
 O        -7.6317976301        3.8948996381       -3.0724430593
 C        -5.9139882151        2.9554171291       -4.4362840234
 C        -6.4710516889        1.5823257901       -4.0306132363
 C        -6.5191539244        1.2085583779       -2.5303797937
 O        -5.6161069672        1.5014942505       -1.7902879355
 C        -7.8654462589        0.5333825810       -2.0149650979
 C        -8.7436694746        1.7866778358       -1.6053711252
 O        -8.2577007844        2.5292802074       -0.7358995268
 C       -10.0821545250        2.0079702429       -2.3094979511
 C        -8.6054751403       -0.4384542710       -3.0964112637
 C        -7.5651571400       -0.2593375378       -0.7845838884
 C        -6.8553376372        6.2902955133       -5.1532720548
 C        -4.6596930405        5.7651709316       -4.0653699122
 C        -7.6923863795        9.8903474064        1.7485967692
 C        -8.2759321953        7.7736498472        2.9028581834
 C       -13.7722742697        5.5281631872       -2.5399224729
 C       -13.4711866847        7.8459495783       -1.4814994047
 C       -11.2025313647        3.2807158919        4.0032523108
 C        -9.1179444950        3.1946481197        2.5574524047
 C       -14.0564129042       -2.9697976875        1.8385663092
 C       -15.5569540199       -1.3702639510        2.9880465536
 H       -15.1951151047       -2.7226440348        5.4962767624
 H       -14.5844746232       -1.0770009108        5.6593442834
 H       -13.5808973962       -2.4612103820        6.2431857500
 H       -11.3837195143       -1.0097200760        1.2464889943
 H       -11.4697692607       -1.8032228332        2.8150763678
 H        -9.7081601296        0.1441385113        3.0491220211
 H       -11.1268419615        0.4705459482        3.9326018700
 H       -13.2991106709        4.5652221513        2.3278814650
 H       -13.3247903766        2.7900690931        1.7560042217
 H       -14.6039938257        3.7991744318        0.1635761154
 H       -13.0413192520        3.6819834460       -0.5548152646
 H       -10.8465478449        8.3413270616       -1.0868571416
 H        -9.5832436081        7.0284332088       -1.2269743776
 H       -10.1262178037        6.5112621229        1.1746405516
 H       -11.4928198483        7.6034425362        1.0262827691
 H        -5.8515072071        8.8334205477       -0.2525433708
 H        -7.2243431955        8.6306752129       -1.2529946117
 H        -5.1721402871        6.2838691169       -1.0834573485
 H        -4.9227529922        7.6801999238       -2.0899347968
 H        -4.8441387370        3.0159922813       -4.2612308015
 H        -5.9925526431        2.9442550313       -5.5431479578
 H        -5.9306891014        0.7846071667       -4.5843036527
 H        -7.5444679213        1.5550655305       -4.3900335791
 H       -10.4974556387        0.9959844805       -2.4649989522
 H       -10.0514473949        2.5282475390       -3.2955781322
 H       -10.6329594205        2.6385129444       -1.5650565722
 H        -9.1610993919        0.0911359387       -3.8569120437
 H        -9.2691106409       -1.0654628016       -2.4924931939
 H        -7.8742421294       -1.0977969329       -3.5634328022
 H        -7.0714038301       -1.1530451520       -0.9669072432
 H        -8.5136625043       -0.5786689217       -0.2946995214
 H        -7.0013719934        0.2298952640       -0.0788615092
 H        -6.8428958054        5.5557139268       -5.9589563784
 H        -6.5546785954        7.2922062924       -5.4729426257
 H        -7.9809458115        6.4900084098       -4.8671724189
 H        -4.1413023028        5.5221249643       -3.2612937637
 H        -4.3292687839        6.7526140562       -4.3958950910
 H        -4.4802467524        5.0006363528       -4.8388725220
 H        -8.4604409755       10.4707152571        2.1492757861
 H        -7.4415021924       10.3527456849        0.8223802357
 H        -6.8201355624        9.9717474600        2.3929014560
 H        -8.5665993328        6.7323377952        2.7864494399
 H        -9.0028120363        8.1968120761        3.5612507930
 H        -7.3265219317        7.8269936148        3.4005052443
 H       -13.7745448873        6.1314005547       -3.5042109675
 H       -14.8416572659        5.2454137606       -2.4214240324
 H       -13.1188075527        4.7068662537       -2.7337621444
 H       -13.1748566364        8.3264163722       -2.4197870396
 H       -13.0259728776        8.4293812874       -0.6189500729
 H       -14.5661680307        7.9574965369       -1.4347758464
 H       -10.8389226155        2.5502005395        4.6779990454
 H       -12.2588391709        3.2722288120        4.0088227759
 H       -10.7484866192        4.2537953397        4.2913825839
 H        -8.7907107505        3.3373536926        1.5036138954
 H        -8.6237258639        2.3321527479        3.0552018272
 H        -8.8510832073        4.1221588311        3.0947723974
 H       -14.6285398953       -2.6120734432        0.9748519722
 H       -14.4707389747       -3.8823092303        2.2586224148
 H       -13.0025391944       -3.2542846327        1.5975422031
 H       -16.1144399243       -2.2587767763        3.2824408956
 H       -15.9109887867       -1.0092989815        2.0174183508
 H       -15.7293692607       -0.6011988896        3.7694930079
 Na       -8.7725453147        4.7546372940       -1.0460424745
