117

 C       -14.5553900373       -1.6328403273        5.9815880283
 C       -13.7474974576       -2.1989625184        4.8300291537
 O       -12.7740281833       -2.8644374191        5.0737180062
 C       -14.1477899485       -1.7960562733        3.3514512807
 C       -13.2291814149       -0.6967379260        2.8678910792
 O       -13.5573765763        0.4675057342        2.7581509066
 C       -11.7045384676       -1.1643356204        2.7047248761
 C       -10.7469032941        0.0671925773        2.8418349186
 C       -10.9729976591        1.2902088690        1.8798472476
 O       -10.9456877916        1.1109372193        0.6812460423
 C       -10.9269954102        2.7989412888        2.4917373802
 C       -11.5725655639        3.8725773629        1.5427604349
 O       -10.8830856025        4.5023214950        0.7854124223
 C       -13.0415938318        4.1261783561        1.5564853212
 C       -13.6633127250        4.3916619394        0.1690690554
 C       -13.5023047735        5.8642223814       -0.2242362243
 O       -13.5766644927        6.7701098340        0.5581284309
 C       -13.1695803230        6.2745453185       -1.7089775682
 C       -11.5477779235        6.5720069292       -1.7672434231
 O       -10.8737296897        5.5776810894       -1.8563686991
 C       -10.9599790140        7.9282945717       -1.5789486984
 C       -10.2772325264        7.9472483896       -0.1313177067
 C        -9.2295757190        8.9738834347        0.2068373127
 O        -9.4494163540       10.1361031243       -0.0640896527
 C        -8.0872474830        8.6292205820        1.2748856516
 C        -7.1467588741        7.5971670759        0.5685647991
 O        -7.3287120804        6.4048436171        0.6116515628
 C        -5.8916172289        8.0335667151       -0.2768069162
 C        -5.3768455288        6.9585686413       -1.2838436776
 C        -6.3909962986        6.3790865728       -2.2817666483
 O        -7.5077273903        6.7915957124       -2.2241938111
 C        -5.9840508863        5.4907662419       -3.5461553414
 C        -6.7297937024        4.1305497578       -3.6206940269
 O        -7.7095605439        4.0755382972       -2.9097288098
 C        -6.3701176141        2.9787969886       -4.6005486363
 C        -7.0338860947        1.5758647724       -4.3855041245
 C        -6.6970696982        1.0327393613       -2.9286395303
 O        -5.6182853829        1.1024117560       -2.3956876265
 C        -7.8701694413        0.3790184359       -2.1069816493
 C        -8.7513680543        1.6607365084       -1.7816500242
 O        -8.4414635880        2.4335045804       -0.9304674250
 C       -10.0582471292        1.8335068334       -2.5125551786
 C        -8.5279422712       -0.7238286628       -2.8889068257
 C        -7.4452119835       -0.1445145032       -0.7495900623
 C        -6.4502955638        6.3357347723       -4.7348543480
 C        -4.3585533253        5.3695240011       -3.5799073226
 C        -7.2923056652        9.9197490481        1.5722636851
 C        -8.7622984793        7.9582194548        2.5321440177
 C       -13.4240799149        5.1142088015       -2.7869375324
 C       -13.9314548650        7.5172073935       -2.1085028239
 C       -11.5060541222        2.8949139703        3.9013248767
 C        -9.3985671985        3.1804986306        2.4444794496
 C       -13.9413561011       -3.0820259652        2.3951436225
 C       -15.6029567041       -1.3250881945        3.2861714006
 H       -15.4582544407       -2.1309657683        5.9839195390
 H       -14.5644108934       -0.5377380339        5.9820805126
 H       -13.9947006457       -1.9004738984        6.8516624309
 H       -11.7595792957       -1.5931950822        1.6878105497
 H       -11.3168526898       -1.8515234108        3.3809341727
 H        -9.7998395916       -0.3041519816        2.6031794407
 H       -10.7250071882        0.3789682162        3.9094134880
 H       -13.1862053519        5.0656588170        2.1015287013
 H       -13.5198435122        3.2481454368        2.0385918617
 H       -14.7037280557        4.1482308339        0.0692504955
 H       -13.2337577850        3.6902764152       -0.4961572199
 H       -11.7350108097        8.7117057191       -1.5526823883
 H       -10.1670248655        8.0988169904       -2.3259575197
 H        -9.8136059367        6.9469236007       -0.1081323485
 H       -11.1469980741        8.1122444692        0.5185062507
 H        -5.0456079333        8.2272840199        0.4783727216
 H        -6.1051948774        8.9855920634       -0.7453302875
 H        -4.8174112547        6.2303578727       -0.7253180729
 H        -4.5979912711        7.5425821791       -1.8735911061
 H        -5.2563375680        2.8306792666       -4.7933076060
 H        -6.7137904803        3.4184722919       -5.5653963020
 H        -6.7632820296        0.8290128208       -5.1452765508
 H        -8.1217810395        1.6762293087       -4.4357860825
 H       -10.8758845723        2.1242669125       -1.7557869557
 H       -10.3925514014        0.9521185194       -3.0395727868
 H        -9.8433534070        2.6014767267       -3.2669405522
 H        -9.1073751609       -0.3233365052       -3.7981380364
 H        -9.2979498948       -1.1783833942       -2.2753167773
 H        -7.8755319258       -1.4912077783       -3.1964716975
 H        -6.5905773372       -0.7575780165       -0.7074847832
 H        -8.2817589015       -0.7116375006       -0.2617563958
 H        -7.3018534189        0.7019625057       -0.1228552638
 H        -5.7325173277        6.4306827677       -5.5366679880
 H        -6.4763174054        7.3988860191       -4.5077281087
 H        -7.3575597484        5.9224619140       -5.1931906224
 H        -4.1022163227        4.8750363695       -2.7108261144
 H        -3.9731901898        6.4046882168       -3.6182171732
 H        -4.0142272959        4.8342656340       -4.5453824890
 H        -7.9404281232       10.7076351819        1.8947376671
 H        -6.7273177700       10.2682431654        0.7098610887
 H        -6.6409918478        9.7852128835        2.4129876593
 H        -9.2746406155        7.0117683115        2.3065424245
 H        -9.4388867328        8.6162180573        3.0646662297
 H        -8.0839679218        7.6769909073        3.2845884882
 H       -13.6808660965        5.6266782286       -3.7297331375
 H       -14.2420526644        4.5042381486       -2.5123606705
 H       -12.5353778135        4.4113713241       -2.8703617921
 H       -13.4706651299        7.7949568203       -2.9927423542
 H       -13.8070920211        8.3811866113       -1.3712882970
 H       -14.9942918230        7.4339780923       -2.1923674644
 H       -11.1188840071        2.0604203712        4.4488704443
 H       -12.6170091289        2.8179650864        3.9122078962
 H       -11.2269275765        3.7663837888        4.4269891260
 H        -9.1078760691        3.2856186498        1.4192091387
 H        -8.8088771529        2.3989182367        2.9981196053
 H        -9.0938964479        4.1076241551        2.9665462960
 H       -13.6514634292       -2.6996515852        1.4106611938
 H       -14.9018489447       -3.6264502593        2.2418510271
 H       -13.1012217148       -3.7208246137        2.7119502865
 H       -16.3424585207       -2.0621546467        3.5226224976
 H       -15.8115184842       -1.0896340845        2.2401731467
 H       -15.7194109195       -0.3823588850        3.7988120314
 Na       -8.9217151153        4.7990825484       -0.9315504745
