117

 C       -14.6357504687       -1.4914183030        6.0236979367
 C       -13.7939229610       -2.2359593799        4.9260821652
 O       -12.7892020512       -2.8570069747        5.1470581269
 C       -14.1881509752       -1.8575068073        3.3921586929
 C       -13.1112828381       -0.7061407966        3.0257187617
 O       -13.4773848318        0.4180761916        2.9924018388
 C       -11.6773457856       -1.0648805369        2.7567078211
 C       -10.7771899686        0.1345198972        2.8013875874
 C       -11.0261279810        1.2723725647        1.8027877690
 O       -10.9862837643        1.0609652516        0.5789172154
 C       -10.8811763552        2.6884695844        2.4103370226
 C       -11.5679919712        3.8125573433        1.4744884405
 O       -10.8884270728        4.5932907407        0.8414561833
 C       -13.1289755572        4.0550115228        1.5335114664
 C       -13.6299814231        4.4747284111        0.1065142644
 C       -13.3921891734        5.9207421055       -0.2859390487
 O       -13.5211783071        6.8444112211        0.4756087503
 C       -13.1043806344        6.3296055716       -1.8957854015
 C       -11.6235000198        6.5907017215       -1.8338575418
 O       -10.8513151914        5.6089068256       -1.8282923496
 C       -11.0104096916        8.0198856394       -1.5355298860
 C       -10.2895468778        7.9113005095       -0.1832737855
 C        -9.3085774726        9.0578457817        0.1431581205
 O        -9.3869811565       10.1844557443       -0.2431953176
 C        -8.0614883533        8.6299012954        1.1584886686
 C        -7.1471085846        7.5225913854        0.5098303088
 O        -7.4667015522        6.3381528329        0.5979671019
 C        -5.7672574509        7.9612251084       -0.2057516343
 C        -5.2781698259        6.8901518145       -1.1843142440
 C        -6.3204136788        6.4432055178       -2.2750459148
 O        -7.4870903629        6.8067649551       -2.2391142299
 C        -5.9080645099        5.5423922466       -3.4863015363
 C        -6.7599016508        4.1160118655       -3.5613881705
 O        -7.7305652898        3.9940474320       -2.8794299613
 C        -6.4592702841        3.0134009341       -4.6243574665
 C        -7.0915314377        1.6503280222       -4.2445706425
 C        -6.7184127857        0.9582376828       -2.9114197551
 O        -5.5627003659        1.0685801079       -2.5036286279
 C        -7.9210413070        0.3390993121       -2.0471334075
 C        -8.7899073880        1.5812348351       -1.7977485880
 O        -8.3079433758        2.3548567313       -0.9657615628
 C       -10.1488244988        1.8759302201       -2.5200812096
 C        -8.6251728955       -0.7582770710       -2.9694207502
 C        -7.3184309032       -0.0836456974       -0.7226552158
 C        -6.3463503043        6.2929449180       -4.8186012987
 C        -4.3229216811        5.2362510660       -3.5668583297
 C        -7.3798344678        9.8748237909        1.7526134718
 C        -8.7909613714        8.0405569213        2.3868120496
 C       -13.3863812735        5.0990185518       -2.7896126923
 C       -14.0813151962        7.5220082315       -2.1271724654
 C       -11.5670438029        2.9042017069        3.8212759508
 C        -9.4000072679        3.0185883981        2.5408920782
 C       -13.9487451715       -3.0860582594        2.5048370653
 C       -15.6187768670       -1.2374585010        3.2717846241
 H       -15.5711552637       -1.9967577829        6.1025624286
 H       -14.6521047238       -0.4528462284        5.7817874712
 H       -14.0755023695       -1.5358578140        6.9533837854
 H       -11.7882003305       -1.6004261734        1.7447735290
 H       -11.2336271463       -1.7051124213        3.4840189545
 H        -9.7858882254       -0.2657437591        2.6122167215
 H       -10.8302102471        0.5348232550        3.8053269256
 H       -13.3406901354        4.8506314552        2.2765158893
 H       -13.6113724734        3.1265580449        1.7481005573
 H       -14.7195171239        4.2418329653       -0.0972355407
 H       -13.1753127592        3.7068766783       -0.5503854988
 H       -11.6833619538        8.8775563505       -1.4131651531
 H       -10.2386785677        8.1808845791       -2.2919633040
 H        -9.7509910011        6.9442735614       -0.2284301041
 H       -11.1295942307        8.0001194760        0.4619464039
 H        -5.0484076573        8.2766844429        0.5092474270
 H        -6.1256815572        8.9139139452       -0.8078211633
 H        -4.9234292173        6.0401203307       -0.6410893113
 H        -4.4104272121        7.3270126809       -1.6946716602
 H        -5.3950079309        2.8251907738       -4.8925508239
 H        -6.9028179959        3.4085867557       -5.5634674668
 H        -6.7438889283        0.9219724923       -4.9357334319
 H        -8.1754112434        1.6514228999       -4.3706994065
 H       -10.7869124892        2.3388693464       -1.7725411623
 H       -10.6559786898        1.0015267555       -2.9033333877
 H        -9.9367618201        2.5435714557       -3.3552938358
 H        -9.1696005034       -0.3276499724       -3.8322611132
 H        -9.4106784921       -1.3251471150       -2.4259441460
 H        -7.9074658626       -1.4806716261       -3.3419296714
 H        -6.5695972300       -0.8668811354       -0.8445843535
 H        -8.1177816653       -0.4950644003       -0.0008916662
 H        -6.8764696853        0.7552893381       -0.1937749242
 H        -5.8297432423        6.0913686034       -5.6914473733
 H        -6.1814980243        7.3176977219       -4.7805329140
 H        -7.4243209868        5.9824965171       -5.0151021839
 H        -4.1592823102        4.3634065564       -2.9666956877
 H        -3.7257672546        6.1665025172       -3.2808020269
 H        -4.1412520631        5.0496381978       -4.6495450963
 H        -8.1329937081       10.5036487949        2.2093274518
 H        -6.7688678915       10.4908672416        1.0506720383
 H        -6.7470157946        9.5782314676        2.6547382791
 H        -9.2496550304        7.0248004690        2.2333711253
 H        -9.5905210095        8.7424079345        2.6599009826
 H        -8.2753839897        7.8749098733        3.3139279961
 H       -13.4353549778        5.4161429931       -3.8716728839
 H       -14.3065020271        4.6565140916       -2.4568068114
 H       -12.6526526697        4.3570178296       -2.6266844172
 H       -13.8301068947        8.1083432829       -2.9782026733
 H       -14.1151994708        8.1955705857       -1.2615352630
 H       -15.0896762259        7.1697774775       -2.2582154851
 H       -11.1366237945        2.2258578095        4.5265974830
 H       -12.6380261768        2.7699881492        3.8370865239
 H       -11.3651354727        3.9439530582        4.2077319537
 H        -9.0062145660        3.2067994865        1.5134856647
 H        -8.8311547075        2.1923810094        3.0386988725
 H        -9.1783803124        3.9019590015        3.1305127609
 H       -13.8625162852       -2.8115295761        1.4687102101
 H       -14.7451931586       -3.8064022545        2.5902463806
 H       -12.9467873204       -3.4856946269        2.7695095370
 H       -16.4163425582       -1.8708218930        3.4912249161
 H       -15.7949637726       -0.9040742902        2.2629737056
 H       -15.6534342163       -0.3266264582        3.8513432088
 Na       -8.8401707015        4.8977989870       -0.8608441703
