117

 C        -6.1224628121       -4.5266579250        4.7642877041
 C        -6.2025425337       -5.4023014574        3.3996053711
 O        -5.6792861613       -6.4597354502        3.1255858272
 C        -7.0492317959       -4.6469119642        2.2163321570
 C        -8.3949176247       -4.2530483275        3.0243801224
 O        -8.8921872662       -5.0805349358        3.7684203122
 C        -9.1055517734       -3.0092292641        2.7237118827
 C       -10.3394339138       -2.9779343028        3.6990653758
 C       -11.2755293507       -1.8724746824        3.4240540173
 O       -12.0631192185       -1.9077683511        2.4614367838
 C       -11.3413078163       -0.5831687970        4.3713202612
 C       -10.2180623222        0.4483451804        3.7903237835
 O        -9.0726347410        0.4601145547        4.1973217141
 C       -10.6643543484        1.3333802031        2.6667412439
 C        -9.5026641935        2.0117386305        1.9732196700
 C        -9.8005960022        2.9012954865        0.7259154900
 O        -9.4918837922        4.1067605942        0.8263854218
 C       -10.4951371026        2.3223840244       -0.5442349098
 C       -12.0330382386        2.6368299834       -0.6565445605
 O       -12.6143605845        2.9687885370        0.3523609147
 C       -12.8892429806        2.4918758719       -1.9285786883
 C       -13.5946069587        3.8638937967       -2.3057073894
 C       -12.7364983327        5.0850082828       -1.9568490233
 O       -11.6356205361        4.8302369716       -1.4421535307
 C       -13.2644984717        6.5418930458       -2.2523910123
 C       -12.0494376974        7.3183445778       -3.1108405795
 O       -10.9876221652        7.3014789978       -2.5916619639
 C       -12.3846303040        7.9150676331       -4.4885084682
 C       -11.1393473864        8.8265977138       -5.1149194601
 C       -10.9105622057        9.7978723357       -4.0469776110
 O       -11.6599849919        9.8306557452       -3.0997282793
 C        -9.6177699920       10.6631971762       -4.0410220170
 C        -8.6752654151       10.1818947333       -2.8711801411
 O        -7.4924700255        9.7972295210       -2.9977518772
 C        -9.2880818684       10.2243375796       -1.5021818222
 C        -8.2098278450       10.0118488267       -0.3674573730
 C        -8.1160457807        8.4890694098       -0.0732403318
 O        -9.1545047896        7.9110889185        0.1901391868
 C        -6.7344911025        7.6258608519       -0.0942112468
 C        -6.7845264589        6.7787135975       -1.4392989779
 O        -7.7420549197        6.1515249317       -1.8545010200
 C        -5.3909577699        6.7767887954       -2.2178274335
 C        -5.5766443589        8.5950682758        0.0611100295
 C        -6.7344657180        6.7672358132        1.2060485112
 C        -8.8313223149       10.5038268545       -5.3284907137
 C       -10.0914979534       12.1331705322       -3.7740758008
 C       -14.6235701061        6.5679057794       -2.9966829015
 C       -13.5434731783        7.3158829438       -0.9175322997
 C        -9.6278354448        2.8171761515       -1.7228365308
 C       -10.3829436889        0.7273585490       -0.5993999810
 C       -12.7092656189        0.0278709707        4.3767217367
 C       -10.8333747013       -0.9404960953        5.7524597163
 C        -6.3689028597       -3.3646086118        1.6083255177
 C        -7.4418862203       -5.7367166315        1.1108403416
 H        -6.4614089706       -3.4574747222        4.6380533696
 H        -5.0933600437       -4.5048688210        5.0689726693
 H        -6.7950302335       -5.0573943435        5.5174224273
 H        -9.4592548871       -2.9388340843        1.6210300737
 H        -8.5421673981       -2.1217303365        2.7259231366
 H        -9.9695504258       -2.8948716476        4.7571962942
 H       -10.9046161929       -3.8898058604        3.5280980625
 H       -11.3995097246        2.1597394571        2.8807345705
 H       -11.2884589168        0.7110879492        1.9395203338
 H        -8.7380150081        1.2929651206        1.6827002999
 H        -9.0045915029        2.6374618894        2.6461643514
 H       -13.4887563264        1.6471326453       -1.6463418426
 H       -12.3934477155        2.0399668347       -2.7446111472
 H       -14.4630928140        3.8891098316       -1.7764572806
 H       -13.7748559104        3.8762195262       -3.3799553660
 H       -13.3324275210        8.4711591511       -4.3902782633
 H       -12.4924994114        7.0191038013       -5.2791219869
 H       -11.4313521981        9.4041488446       -6.0544105211
 H       -10.3112008240        8.2011082621       -5.3933570425
 H        -9.9941105646        9.3466784392       -1.4389467262
 H        -9.9194993774       11.0696876770       -1.2776589980
 H        -8.5730241310       10.4109539743        0.5800411759
 H        -7.2032726929       10.4438328998       -0.7109947368
 H        -5.3566081677        7.6157098911       -2.8311571314
 H        -5.2480605975        5.9495114268       -2.9221827606
 H        -4.5622481604        6.8784729753       -1.4933230642
 H        -5.6389709317        9.3441212534        0.8779596824
 H        -5.3664330450        9.0748063922       -0.8549180280
 H        -4.6872202907        8.0500111897        0.2978847176
 H        -6.2351432720        7.2666709635        2.0530631793
 H        -6.1847795097        5.8007535300        1.0269113032
 H        -7.7253005139        6.6244381641        1.5906621244
 H        -8.0060429801        9.8216455776       -5.0938863961
 H        -8.6131631629       11.4474913127       -5.8002125658
 H        -9.3587031806        9.9583712742       -6.1670325626
 H        -9.2357041884       12.6608783130       -3.2358265229
 H       -10.8417800854       11.9126125114       -3.0721316078
 H       -10.3465696210       12.7655477403       -4.6370791672
 H       -15.3810951251        6.1771928134       -2.3177647795
 H       -14.6029254461        5.9514725302       -3.9417698578
 H       -14.9577480845        7.5264067969       -3.2311657619
 H       -14.0534353409        6.7813474293       -0.1783733447
 H       -14.2222330108        8.1089160871       -1.1683053257
 H       -12.6489045440        7.6801663181       -0.4776161341
 H       -10.1082592536        2.5653772083       -2.6886439187
 H        -8.6700140598        2.4499221885       -1.7126732633
 H        -9.5362440986        3.9157764221       -1.8382227196
 H       -11.0350767699        0.1386198328        0.0704154408
 H        -9.2686433913        0.5281102351       -0.5329960192
 H       -10.4984104818        0.4309591983       -1.6189345495
 H       -13.5326411930       -0.6561409500        4.3108081998
 H       -12.8718497292        0.7719960593        3.5706536703
 H       -12.9022276783        0.6352748398        5.2777305140
 H       -11.3633559479       -1.7284297842        6.3365502884
 H       -10.7588967670        0.0548481723        6.3382711711
 H        -9.7595052896       -1.2605301556        5.6912729989
 H        -6.1306644482       -2.7369146885        2.4440097463
 H        -7.0205865752       -2.9061674197        0.8493195565
 H        -5.5676440844       -3.6276421003        0.9608136510
 H        -8.2710766254       -6.4166256753        1.4238135692
 H        -6.5421609470       -6.2976966002        0.8895107032
 H        -7.7323497629       -5.2718616494        0.1881232557
 Na       -9.8880621980        5.9533653265       -0.6865023238
