117

 C       -14.7913264096       -1.1068852287        6.1877340355
 C       -13.9281231413       -1.9913710700        5.3340646157
 O       -13.1433349080       -2.7985244109        5.7557665389
 C       -14.1256859959       -1.7798114008        3.6895213667
 C       -13.1581584009       -0.6243205429        3.3231582087
 O       -13.2667759894        0.5458099230        3.7785850272
 C       -11.8070852015       -0.9523818569        2.6180869132
 C       -10.7923943008        0.1890610143        2.7507643546
 C       -11.2364381330        1.4573956454        1.9126617872
 O       -11.9275433180        1.3044276183        0.9343964216
 C       -10.8489013276        2.9567070456        2.3033836530
 C       -11.4732118259        3.8369158764        1.2135951809
 O       -10.8357083151        4.3588085865        0.3263457719
 C       -12.9839699608        3.9070860001        1.1066142538
 C       -13.2945548670        4.2749984249       -0.3748542830
 C       -13.1590159776        5.7529345956       -0.5847560537
 O       -13.1488523373        6.5526245249        0.3172165423
 C       -13.0496967423        6.3277579068       -2.0373331815
 C       -11.4952654521        6.6369574771       -2.0197730123
 O       -10.6700677385        5.8030872025       -2.3458529435
 C       -10.9463333006        8.0000982268       -1.6426913332
 C       -10.5215710542        8.1016644172       -0.1243405297
 C        -9.1867671376        8.8710903227       -0.0327824122
 O        -8.7181158773        9.4681151003       -0.9793649939
 C        -8.1961263628        8.5203039165        1.1548054274
 C        -7.3303688872        7.3257288415        0.7265280569
 O        -7.7993502394        6.2174448088        0.6810917891
 C        -6.0526699506        7.6412824479       -0.0533877823
 C        -5.5161752119        6.5888404358       -0.9817759839
 C        -6.4111637095        6.2869442858       -2.1517440947
 O        -7.4956442806        6.8183507977       -2.2543096580
 C        -5.7586066621        5.4405066301       -3.3865651436
 C        -6.7140149847        4.2516017801       -3.6307148225
 O        -7.7517248714        4.1250650913       -3.0248826482
 C        -6.3968535628        3.1742573460       -4.6372968210
 C        -7.2783751767        1.8703625424       -4.3616258668
 C        -6.8102642822        1.1154854206       -3.0207814895
 O        -5.6870599442        0.7794435431       -2.8565133872
 C        -7.9964410461        0.5114097362       -2.0519590464
 C        -8.8002027820        1.7313376451       -1.3556164774
 O        -8.1972871307        2.4760544027       -0.5498827352
 C       -10.2600878354        2.0463727134       -1.6751207333
 C        -8.7638010821       -0.5869863654       -2.7613183260
 C        -7.2578893000       -0.2123389013       -0.9428533649
 C        -5.7421969677        6.2492087138       -4.6811734031
 C        -4.3034618179        5.0448093239       -3.0143125568
 C        -7.2662317382        9.7849792512        1.3541976025
 C        -8.8818252574        8.1701993485        2.4317910209
 C       -13.3456538146        5.3096477026       -3.2326735975
 C       -14.0552767668        7.5300028411       -2.1215508428
 C       -11.3518548868        3.1721778396        3.6966268962
 C        -9.2999114638        3.0337667761        2.3179610185
 C       -13.8473717011       -3.1235944902        2.9137439158
 C       -15.5501009761       -1.3132517788        3.3715420267
 H       -15.8585886105       -1.3027759219        5.9639090225
 H       -14.5449287233       -0.1122848222        5.8817714378
 H       -14.5641262418       -1.2824091058        7.2059645280
 H       -12.0567786642       -1.1234787475        1.5898511605
 H       -11.4364840479       -1.9679803187        3.0853203968
 H        -9.7940609424       -0.0292739154        2.2911080709
 H       -10.6028807714        0.3806233344        3.7822118359
 H       -13.4357930809        4.7309138097        1.6505735392
 H       -13.5012097937        3.0072244867        1.4215852233
 H       -14.3344406557        3.9145131802       -0.5879018771
 H       -12.7252927956        3.6010737814       -1.0970886384
 H       -11.6416747504        8.8028266551       -1.8752144040
 H       -10.0476607465        8.2201202994       -2.2335351125
 H       -10.2662928387        7.0875722672        0.0479542722
 H       -11.3675018292        8.5663733031        0.3533730432
 H        -5.2412422610        7.9413047361        0.6505640151
 H        -6.3646434745        8.4832674062       -0.6160213146
 H        -5.3451067245        5.6491033601       -0.3954977587
 H        -4.5729441452        6.9467543949       -1.2559308372
 H        -5.3425820247        2.8978314613       -4.6462576191
 H        -6.6956165162        3.4836729132       -5.6752736579
 H        -7.0314874410        1.2070541498       -5.1849113161
 H        -8.3364609926        2.0677841013       -4.4066291893
 H       -10.5421013610        3.0744742444       -1.5403329796
 H       -10.7564543524        1.4594745795       -0.8710099722
 H       -10.5991849566        1.5508373492       -2.5798019583
 H        -9.2133631123       -0.2656397508       -3.6651583243
 H        -9.5850215719       -0.9759729223       -2.1371916271
 H        -8.0879928766       -1.4425058000       -3.0803377782
 H        -6.3496322692       -0.7613323831       -1.3372261911
 H        -7.8723929351       -0.8783810553       -0.4166562850
 H        -6.8632152599        0.5536976979       -0.2104753201
 H        -6.7598945039        6.5212126906       -5.0125271473
 H        -5.1767950695        5.8212187975       -5.5245063273
 H        -5.2116285994        7.1056262414       -4.4601174313
 H        -4.3433407636        4.4431012136       -2.0729183929
 H        -3.6967363188        5.9722686026       -2.8753613243
 H        -3.9525252757        4.4112131058       -3.8515960331
 H        -7.8369355714       10.6816928941        1.7173159013
 H        -6.7424022053       10.1253648759        0.4659794488
 H        -6.4932386899        9.4382864741        2.0198522306
 H        -9.6141323261        7.3986952780        2.4136202970
 H        -9.4841183776        8.9832416211        2.8369400624
 H        -8.1172216199        7.8837166691        3.2119924464
 H       -13.4331222043        5.9154070430       -4.0886497172
 H       -14.2990345947        4.7718251677       -3.0188418260
 H       -12.5660333791        4.6133524565       -3.4882113655
 H       -13.7804588913        8.1889397525       -2.9375675204
 H       -14.1308643836        8.0904138078       -1.2283266463
 H       -14.9841369341        7.1777148594       -2.4621670103
 H       -11.0910391679        2.3965739831        4.4192240900
 H       -12.4328040522        3.2425235904        3.7059812461
 H       -11.0562001602        4.1195750869        4.0972289322
 H        -8.8302286089        2.6780676023        1.4034096339
 H        -8.8934464164        2.2901746406        2.9528097961
 H        -8.9725602228        4.0489574828        2.5713039786
 H       -13.3942335807       -2.9118990876        1.9067473990
 H       -14.7886769591       -3.6566006769        2.7110063828
 H       -13.1641531920       -3.7953048582        3.4412335790
 H       -16.3780470446       -1.9491868062        3.7149818282
 H       -15.5709583770       -1.2128240824        2.3193716375
 H       -15.7758614306       -0.3672157767        3.7911852792
 Na       -8.9659844812        4.7630639131       -1.1534015013
