117

 C       -14.8026377399       -1.0176090579        6.2343986035
 C       -13.9802072373       -1.9665768677        5.3003168202
 O       -13.2334317415       -2.7885249665        5.7292227074
 C       -14.0769459279       -1.7092071366        3.7553889799
 C       -13.0810077675       -0.6020314858        3.4813198902
 O       -13.3425267513        0.5153668515        3.8464718879
 C       -11.7507163916       -0.8787330594        2.6234405082
 C       -10.7887905838        0.3068679581        2.7476676890
 C       -11.3041397665        1.4161549783        1.9200695219
 O       -12.0709004914        1.2659980798        0.9836564695
 C       -10.8687461738        2.9325020714        2.3598396059
 C       -11.5048388260        3.8675921405        1.1940515923
 O       -10.8059625152        4.3169289576        0.2911182452
 C       -13.0148216381        3.9154516403        1.0398085862
 C       -13.3479837379        4.2693676565       -0.3925678406
 C       -13.1418318758        5.7029128229       -0.6188434854
 O       -13.1502305340        6.4746401859        0.3106247792
 C       -12.9952608256        6.3685252754       -2.1096715634
 C       -11.4549853501        6.6278301946       -2.1744826866
 O       -10.7517062475        5.6922421826       -2.4656505068
 C       -10.9685619656        7.9798089621       -1.6913435261
 C       -10.4797464336        8.0882487554       -0.1444920986
 C        -9.0725984729        8.7065134721       -0.1148318109
 O        -8.5947939170        9.3597614285       -1.0141196030
 C        -8.1873309241        8.5647050332        1.2697291095
 C        -7.4771551164        7.3250773956        0.6208677742
 O        -7.9418560542        6.2196344570        0.7884432732
 C        -6.0352402403        7.6510037521        0.0206313761
 C        -5.4425996738        6.5935783114       -0.9484435173
 C        -6.3429755370        6.3986470073       -2.1838208797
 O        -7.5053735105        6.6928203759       -2.2396077442
 C        -5.7331143091        5.4763451024       -3.3539600214
 C        -6.7403067432        4.1818675922       -3.6090959758
 O        -7.7743006804        4.1223075302       -3.0002345626
 C        -6.4150003131        3.0708412184       -4.6534785014
 C        -7.2477008555        1.7869589798       -4.4168541023
 C        -6.8888890007        1.0845167199       -3.0835710865
 O        -5.6962007304        0.8512215831       -2.8786652651
 C        -8.0012763104        0.5520319393       -2.0146857146
 C        -8.7530121963        1.7604443484       -1.3771726608
 O        -8.1239502863        2.6090946889       -0.7569739200
 C       -10.2272317002        1.9352944640       -1.6569831190
 C        -8.8521395194       -0.4847509223       -2.7236446343
 C        -7.2416147979       -0.2839771700       -0.8679133345
 C        -5.7104077401        6.3234269034       -4.6625794292
 C        -4.2996554625        4.7952244901       -3.0499311513
 C        -7.3098453386        9.8781371489        1.4073736856
 C        -8.9801054043        8.2249660667        2.5090844187
 C       -13.2840856707        5.3848354556       -3.2699049438
 C       -13.9156291008        7.5011569353       -2.0884471506
 C       -11.3413341275        3.3214437381        3.7687805255
 C        -9.3213909225        2.9642356230        2.2266946334
 C       -13.7797562314       -3.0819172362        3.0972324642
 C       -15.5743131939       -1.3302046958        3.4000061172
 H       -15.8427152705       -1.2216644622        6.2159630483
 H       -14.6474933996        0.0628445778        5.9580563151
 H       -14.3740192454       -1.2859094141        7.2137609754
 H       -12.1342957102       -0.9952915817        1.5933269697
 H       -11.2713722498       -1.8307901693        2.9414015377
 H        -9.7761025878        0.1509237817        2.3122574211
 H       -10.5811523044        0.5393301710        3.8304339391
 H       -13.4433465653        4.7067972519        1.6293885391
 H       -13.4641958803        2.9685208536        1.3982285442
 H       -14.2904039692        3.7972454451       -0.8396782170
 H       -12.5617618658        3.7210808510       -0.9907588390
 H       -11.7943613409        8.6717253929       -1.7849291137
 H       -10.1977599931        8.4225145000       -2.3125026374
 H       -10.4561630028        7.0571432898        0.1715614548
 H       -11.1818805739        8.8363657977        0.2775269892
 H        -5.4484431792        7.7473834272        0.9447314588
 H        -6.1163607633        8.5598852992       -0.4415411163
 H        -5.4862814442        5.6402096949       -0.4370681774
 H        -4.3794915048        6.8120623355       -1.1171152299
 H        -5.3801089186        2.8295629085       -4.7682668257
 H        -6.8100276695        3.4314662307       -5.5833675248
 H        -7.1226517384        1.1600488489       -5.3164179801
 H        -8.2741717489        2.0611850964       -4.3350086594
 H       -10.3867576489        3.0293171911       -1.8338733631
 H       -10.8356656125        1.6836988749       -0.8230322340
 H       -10.5338037897        1.3125285224       -2.4406597946
 H        -9.3437798259       -0.1157518771       -3.6855118499
 H        -9.6697985577       -0.7999171277       -2.0875740359
 H        -8.2942190953       -1.3369768824       -3.0150868202
 H        -6.4976409062       -0.9783788908       -1.2643625087
 H        -8.0439017620       -0.8821292698       -0.2841995184
 H        -6.7424842000        0.3603796779       -0.1150789916
 H        -6.5097838291        6.9979743976       -4.7036069654
 H        -5.7530896109        5.7246750032       -5.5282001617
 H        -4.6826336344        6.7762293891       -4.7977258772
 H        -4.3712696402        4.1453621152       -2.2918326699
 H        -3.6321611717        5.6154882214       -2.7981066718
 H        -3.9799716286        4.2443988443       -4.0027382893
 H        -7.9816543174       10.7054236836        1.7198700924
 H        -6.8821943095       10.2394757482        0.4217553262
 H        -6.4349374467        9.6887451704        2.0530654653
 H        -9.6893864663        7.3761348886        2.3794109057
 H        -9.7431747100        8.9723964822        2.8546895977
 H        -8.3264643339        7.9961858784        3.3678635370
 H       -13.2482313827        5.9570758039       -4.1769189020
 H       -14.2456784938        4.9515406672       -3.1952238759
 H       -12.4896401667        4.5952791283       -3.3834158551
 H       -13.7712596869        8.1424458948       -2.8938114028
 H       -13.7974812052        8.0887075130       -1.1013322683
 H       -14.9233871150        7.1574823224       -2.2105887712
 H       -11.3502309530        2.4962890610        4.5177623564
 H       -12.4053088579        3.7060845436        3.7588861576
 H       -10.8225992422        4.1401640445        4.2040544939
 H        -9.0631422740        2.7099217845        1.2416150721
 H        -8.8130348862        2.1157607595        2.6779842198
 H        -8.8747784836        3.9138335894        2.5081090568
 H       -13.2200519414       -2.9209338632        2.1839953087
 H       -14.6944429001       -3.5986368432        2.7902091343
 H       -13.2195513016       -3.7497429585        3.7258786823
 H       -16.2948560279       -2.0357843622        3.7320194297
 H       -15.6049450547       -1.2310587160        2.3467093924
 H       -15.9026431221       -0.4253215999        3.8360175173
 Na       -8.8456156739        4.8603304267       -1.2115797679
