117

 C       -14.6993437485       -0.8959049872        6.3119655859
 C       -14.0297999888       -1.9205660105        5.4871013079
 O       -13.3717697147       -2.8129495562        5.9880532514
 C       -14.0992621144       -1.6840453068        3.8871352100
 C       -13.1232504469       -0.5590140018        3.5908268492
 O       -13.3629403278        0.6062041986        3.9633103868
 C       -11.7620221299       -0.9812785205        2.9826978560
 C       -10.8577579250        0.2690873241        2.8983764352
 C       -11.4298769963        1.4471994967        1.9957832470
 O       -12.1906070909        1.2025935821        1.0730919493
 C       -10.8896458813        2.9052724562        2.2403058717
 C       -11.4094888468        3.8314076075        1.0700753514
 O       -10.6805035809        4.4481637064        0.3403286767
 C       -12.9948618813        3.8894944995        0.9370515504
 C       -13.5484704146        4.2870653151       -0.4923120657
 C       -13.2674709097        5.7541589661       -0.7070970690
 O       -13.1102357857        6.4696293028        0.2543067872
 C       -12.9575324257        6.3338316219       -2.1410262280
 C       -11.4409313860        6.6480641113       -2.2292394279
 O       -10.6190006943        5.7415312086       -2.4273153124
 C       -10.8174919120        7.9471029080       -1.8100324359
 C       -10.3511250535        7.9374654981       -0.3453767599
 C        -9.0677235790        8.7696352212       -0.1966218678
 O        -8.4436583905        9.2291156433       -1.1216686747
 C        -8.2676684752        8.5917390698        1.2092946909
 C        -7.3986070411        7.2976013292        0.7123159058
 O        -7.9837303121        6.2289227769        0.7863380625
 C        -6.0101013345        7.4841279972        0.0377576262
 C        -5.4129147945        6.3378899800       -0.7982379212
 C        -6.3110712036        6.0751931847       -2.1053817443
 O        -7.3868521300        6.6447131522       -2.2854555307
 C        -5.7410863834        5.1982704429       -3.3117019386
 C        -6.8541351938        4.1094953939       -3.6476876199
 O        -7.9533082022        4.1552204253       -3.1607985743
 C        -6.4114600556        2.9414435644       -4.6206011176
 C        -7.3549137661        1.7533902231       -4.3319686027
 C        -6.7931044580        1.0190325425       -3.0618208712
 O        -5.6497866856        0.9820718249       -2.7650494674
 C        -7.9869123158        0.5072992491       -2.1330239238
 C        -8.6695245595        1.8097682602       -1.5837339473
 O        -7.9543334289        2.7319992838       -1.1837295266
 C       -10.1888152702        2.0420172466       -1.6375558234
 C        -8.9004334514       -0.4878470761       -2.8507808940
 C        -7.3029121818       -0.0806175395       -0.9513230727
 C        -5.6189949285        6.2008692772       -4.5240905219
 C        -4.3165391962        4.5435057417       -3.1001514335
 C        -7.4704463871        9.8951482057        1.5452070286
 C        -9.2638167094        8.2049131306        2.3700584729
 C       -13.4367643167        5.3496411716       -3.2694089169
 C       -13.7319398805        7.6719753071       -2.2929168414
 C       -11.4130608667        3.5487562622        3.5746592890
 C        -9.3930933463        2.8564421573        2.2170228829
 C       -13.6680974899       -3.0241174541        3.1705819289
 C       -15.4595559195       -1.2621446491        3.3419889482
 H       -15.8188529207       -1.1635732719        6.3202447286
 H       -14.6886472183        0.0145583661        5.7358109213
 H       -14.3057965370       -0.8518873089        7.3250443993
 H       -11.9346635765       -1.4027188882        2.0096004378
 H       -11.2868645121       -1.7695103715        3.5907626086
 H        -9.8208814104       -0.0758634010        2.7008992475
 H       -10.7696934952        0.6550060858        3.8962364946
 H       -13.4641911851        4.6210399175        1.6486935368
 H       -13.3697431462        2.9104748417        1.2259810869
 H       -14.5882212894        4.2001278151       -0.5501671682
 H       -13.1708680766        3.5703371510       -1.1837833821
 H       -11.2708105525        8.9187836344       -2.0596444912
 H        -9.8699792376        7.9715406501       -2.3930998623
 H       -10.1089694733        6.8637466410       -0.0956730307
 H       -11.1385778019        8.4552797461        0.1807775224
 H        -5.3615640511        7.7019217581        0.8993444450
 H        -6.1859526698        8.4339682277       -0.5936182207
 H        -5.2843791615        5.4235011750       -0.1542056718
 H        -4.4162431410        6.6828667118       -1.0990456323
 H        -5.4167021781        2.5331095745       -4.3854105485
 H        -6.4780938639        3.3173642906       -5.6576951301
 H        -7.5152226893        1.0448864112       -5.1483056517
 H        -8.3709318994        2.1314996346       -4.0132186622
 H       -10.3539774868        3.0562661473       -1.8741661752
 H       -10.6708630299        1.8213789235       -0.6415783157
 H       -10.6860315027        1.3355652492       -2.3424800225
 H        -9.4074457643       -0.0642441718       -3.6346662518
 H        -9.6548043702       -0.9237408793       -2.1860192286
 H        -8.3730136828       -1.3914556139       -3.2671523495
 H        -6.8419850694       -1.0551024769       -1.1578197928
 H        -7.9644950810       -0.1656021358       -0.1920897862
 H        -6.5160696544        0.6009184482       -0.6266317831
 H        -5.9160984986        7.2097075768       -4.1204094259
 H        -6.4032994794        6.0468760438       -5.3470532137
 H        -4.7252750351        6.0992875267       -5.0375248958
 H        -4.4084156547        3.6875289512       -2.3641179808
 H        -3.6892588592        5.3181223237       -2.7042158741
 H        -3.9475028071        4.1861884128       -4.0217842571
 H        -8.1957752216       10.5238859185        2.0508639708
 H        -7.1529414503       10.4195985845        0.6874723510
 H        -6.5956980539        9.7027198174        2.1553531093
 H        -9.7384170007        7.2594382667        2.3971786615
 H       -10.1382710154        8.8018842362        2.3690035537
 H        -8.8218800843        8.4428650684        3.3406290135
 H       -13.2415545541        5.7925859197       -4.2734044160
 H       -14.5864963115        5.3887220809       -3.2742811848
 H       -13.0588663030        4.3559203064       -3.2487205536
 H       -13.5479567659        8.1333335349       -3.3425815627
 H       -13.4701725320        8.3701203980       -1.5494646680
 H       -14.8405150458        7.5030588944       -2.2119840330
 H       -11.3495755084        2.8375738712        4.4035035759
 H       -12.4170300901        3.9096406382        3.6053799785
 H       -10.8032282728        4.4381028448        3.9163982363
 H        -8.9793487202        2.3699343370        1.3040922874
 H        -8.9583103328        2.2466080708        2.9914654617
 H        -9.0162719501        3.8707988374        2.3186801673
 H       -13.6629807466       -2.8951185908        2.0955004550
 H       -14.2833464772       -3.8612096638        3.4060353084
 H       -12.6997038374       -3.3499327156        3.5222049906
 H       -16.3283204174       -1.8459990036        3.7350465400
 H       -15.4681973211       -1.2654575804        2.2396965583
 H       -15.6830788055       -0.2293642772        3.6735447830
 Na       -8.7928653286        5.1857666708       -0.9784073302
