117

 C       -14.7778690990       -0.5497295810        6.6315576466
 C       -14.1611339368       -1.6424639090        5.8642024974
 O       -13.6733534508       -2.6057565349        6.3343766050
 C       -14.0712110084       -1.4199984212        4.2879426192
 C       -13.1144779085       -0.2443390697        3.9749685691
 O       -13.5007785557        0.9261442190        4.0505982651
 C       -11.7519035520       -0.6125785531        3.4110778108
 C       -10.8545016637        0.6398907749        3.2753036028
 C       -11.1246571146        1.6082685016        2.0965600211
 O       -11.4196198711        1.1995334995        0.9991435503
 C       -11.0449293829        3.1438487911        2.2744045522
 C       -11.5368945327        3.8337203652        0.9970277553
 O       -10.8665555929        4.2021505648        0.0718379402
 C       -13.0702902095        4.1625000773        0.8978234453
 C       -13.3968435229        4.5323113815       -0.5358965882
 C       -13.2416988294        6.0483510659       -0.8619753988
 O       -13.3743089752        6.8699103259       -0.0097279139
 C       -12.9000388155        6.5674589486       -2.3094582437
 C       -11.3881622469        6.2517295229       -2.5381218831
 O       -11.0017638630        5.1070867655       -2.8398545347
 C       -10.3685504558        7.4329732887       -2.2749386787
 C       -10.1662683863        7.6967459622       -0.7828659654
 C        -9.0162600293        8.6345398524       -0.4474213257
 O        -8.5335313302        9.4782896105       -1.1693367466
 C        -8.2435964887        8.2519347407        0.9425076876
 C        -7.4511445294        7.0582714343        0.5753316988
 O        -8.0754913326        5.9969834036        0.4353219101
 C        -5.9362602024        7.1090523035        0.2759681696
 C        -5.3387996245        5.9846349366       -0.5778045726
 C        -6.2305667819        5.8068806022       -1.9307787690
 O        -7.2358961603        6.4998455489       -2.0937934525
 C        -5.6593641129        4.8545116396       -3.0066280561
 C        -6.8979394419        4.1083212483       -3.6753787549
 O        -7.9949473645        4.2902303239       -3.2510896683
 C        -6.5201958077        3.0581843667       -4.7656631123
 C        -7.2763461015        1.7263218448       -4.5065902290
 C        -6.7647275069        1.1751069763       -3.1935714491
 O        -5.5866398052        1.3166064429       -2.7922997084
 C        -7.8957666691        0.5387107004       -2.2016608471
 C        -8.7838550665        1.7759892903       -1.7287817103
 O        -8.3487703229        2.5559707733       -0.9109990793
 C       -10.2381274547        1.9016223894       -2.3569813991
 C        -8.6517614673       -0.5723937402       -2.8824685917
 C        -7.2289083120        0.0809151014       -0.8915758484
 C        -5.0136280772        5.7910389719       -4.0683548911
 C        -4.4968484501        3.9708508028       -2.5319221149
 C        -7.3839584294        9.4215000468        1.3980426227
 C        -9.2889762786        7.9552372497        1.9889864747
 C       -13.6273886116        5.7376882105       -3.4319739472
 C       -13.3203064619        8.0721392443       -2.3676969650
 C       -11.7730383052        3.6577943750        3.5628798827
 C        -9.5377045797        3.4067674336        2.3421474253
 C       -13.5500837161       -2.7937449594        3.7414008469
 C       -15.5519346348       -1.2131068793        3.8644956881
 H       -15.8795434192       -0.5613375970        6.4872256068
 H       -14.4268286929        0.3469591803        6.1988196040
 H       -14.6165136396       -0.6576521621        7.6724007498
 H       -11.9803232963       -1.0347367098        2.3598528186
 H       -11.3906894215       -1.4446143425        3.9668892415
 H        -9.8231611760        0.3775649287        3.1107914010
 H       -10.8757645833        1.1611560045        4.2564655000
 H       -13.3852305388        4.9799454599        1.5661255295
 H       -13.7084582981        3.3688945143        1.2205706033
 H       -14.5243069668        4.3012049341       -0.6200688528
 H       -12.7299081448        3.8376022188       -1.1505215878
 H       -10.7669570131        8.3664078752       -2.6512061391
 H        -9.4694722190        7.1473282627       -2.7969784626
 H       -10.1036240899        6.8154904817       -0.0774976183
 H       -11.0748347628        8.1643847510       -0.4308627103
 H        -5.4867705546        7.1026889783        1.1942695793
 H        -5.8007148828        8.1507746609       -0.1261530043
 H        -5.2127470677        5.0816311687       -0.0439698356
 H        -4.2643257097        6.2569092740       -0.8205764235
 H        -5.4586324092        2.8512275902       -4.9494970028
 H        -6.8601318353        3.4372493466       -5.7206002623
 H        -7.3043406809        1.0853125697       -5.3628594716
 H        -8.3094292937        2.0396238594       -4.2830970257
 H       -10.9519452120        2.4867288391       -1.8108806081
 H       -10.6534284754        0.8911537633       -2.6436537053
 H       -10.1428390358        2.4859959296       -3.3320205412
 H        -9.2786320439       -0.2360819097       -3.6507803633
 H        -9.3519929964       -1.0852354650       -2.1862815989
 H        -7.9979771719       -1.3499919057       -3.3835161202
 H        -6.4831671273       -0.7135662604       -1.1781692187
 H        -7.9578327738       -0.3229099003       -0.2844617718
 H        -6.7236428577        0.9639374910       -0.4274053175
 H        -4.7460347068        5.1974145678       -4.9532115537
 H        -4.1808151945        6.3224105166       -3.5297399026
 H        -5.6678703238        6.4997768570       -4.3986949078
 H        -4.8197245775        3.1213858804       -2.0080114063
 H        -3.8374415854        4.5400586912       -1.8358343673
 H        -3.8322116265        3.6794590051       -3.3933516505
 H        -7.9314458738       10.0150872364        2.1102936838
 H        -7.0850286391       10.0489272547        0.6147160047
 H        -6.5691925225        9.0117994850        1.9725029896
 H        -9.7089342777        6.9629612426        1.9717616859
 H       -10.0675591208        8.6899656176        1.8633649175
 H        -8.9557866783        8.0083338502        3.0339389522
 H       -13.0735552208        5.9791352090       -4.3654138344
 H       -14.6614287021        6.1570027739       -3.5708129249
 H       -13.7345739039        4.7100842991       -3.3025971419
 H       -12.9259887948        8.6215392256       -3.2409532394
 H       -13.0453199826        8.5908198705       -1.5111091060
 H       -14.3954305556        8.0180361691       -2.4172013614
 H       -11.6037855896        3.0676597642        4.4237688738
 H       -12.8060496205        3.6766891129        3.5088939833
 H       -11.5171653774        4.6754284164        3.8982368818
 H        -9.1317553532        3.5494071545        1.3123896866
 H        -9.0434874705        2.6502575729        2.9148441340
 H        -9.2201862712        4.2849459101        2.8771251784
 H       -13.5425859236       -2.8069625343        2.6382999662
 H       -14.2426791910       -3.5799213355        4.0532495169
 H       -12.4970891237       -3.0044997365        4.0591392324
 H       -16.1249580553       -2.1060307711        4.1626483943
 H       -15.7664294411       -1.1524146678        2.7734397904
 H       -15.9876406116       -0.2631821603        4.2178781710
 Na       -9.0874384374        4.8127713173       -1.2382279647
