117

 C       -14.8064290280       -0.3873020879        6.6877974235
 C       -14.0873579371       -1.5771176706        5.9149887825
 O       -13.6313591455       -2.5545374983        6.4799185121
 C       -14.1621930236       -1.4517711465        4.3337592648
 C       -13.1769016861       -0.2283628946        3.8695049593
 O       -13.4784241215        0.9368248943        4.1657436991
 C       -11.7617390834       -0.4919687418        3.3046529501
 C       -10.8583517885        0.7441017207        3.2921568528
 C       -11.1621735163        1.6632918910        2.1179283721
 O       -11.3529478980        1.2108105656        0.9997939837
 C       -11.0460069258        3.2476404832        2.3283365887
 C       -11.5737482938        3.9266918700        0.9957068285
 O       -10.8146698187        4.1721184147        0.0616356668
 C       -13.0705805576        4.2113196232        0.8099775847
 C       -13.4408323544        4.5246799087       -0.6145147747
 C       -13.2231864321        6.0448974642       -0.8437421755
 O       -13.4005168423        6.8249045260        0.0755058540
 C       -12.8912136304        6.6132225221       -2.3304332400
 C       -11.3389437965        6.3084952630       -2.5273906884
 O       -11.0775846198        5.1421108057       -2.8841803381
 C       -10.3140961251        7.3874390843       -2.2975403440
 C       -10.2512617849        7.6638120628       -0.7860809318
 C        -8.9777563041        8.5194781252       -0.4500754509
 O        -8.6612651490        9.3652872117       -1.2405962440
 C        -8.2739880806        8.3150859158        0.9819753822
 C        -7.4524313730        7.0204389852        0.5524025683
 O        -8.0530679768        5.9665534562        0.4065394598
 C        -5.9616284989        7.1758619250        0.2511236178
 C        -5.4584247597        5.9271126298       -0.4760853704
 C        -6.0742994545        5.7875775851       -1.8530953158
 O        -7.0260964782        6.5028580285       -2.1343884324
 C        -5.5325993819        4.8411909380       -2.8925850237
 C        -6.7961085743        4.0138750729       -3.5257253327
 O        -7.9692515532        4.2520446437       -3.2462785054
 C        -6.5603522096        3.0996026741       -4.6803144431
 C        -7.3018120208        1.7938997511       -4.4691682166
 C        -6.8169249108        1.1773562143       -3.1482865829
 O        -5.6206476710        1.2826306403       -2.8670129315
 C        -7.8514503869        0.5165296137       -2.2256040259
 C        -8.8124948696        1.6722190370       -1.8737675298
 O        -8.4955201872        2.4414616317       -0.9560354195
 C       -10.1679978245        1.8620745931       -2.4557677003
 C        -8.6728842294       -0.5358045671       -2.8930132241
 C        -7.0463744106        0.0766419451       -0.9600630110
 C        -5.0318633592        5.6900934669       -4.1525601203
 C        -4.4475601073        3.9068335148       -2.4617970873
 C        -7.3260569634        9.5393306190        1.3746649711
 C        -9.3493666528        7.8145604289        2.0214856017
 C       -13.6797909827        5.8189846370       -3.4069348482
 C       -13.2958994930        8.0169505137       -2.3466433926
 C       -11.8613555585        3.6977065512        3.5289347117
 C        -9.5085525108        3.6355000084        2.5017396793
 C       -13.6015223186       -2.7559443960        3.7120547516
 C       -15.6021232929       -1.1794827589        3.8428431500
 H       -15.9120053020       -0.5043907065        6.6937831110
 H       -14.5432215424        0.5720129075        6.2976363840
 H       -14.5259248448       -0.4706558457        7.7247308705
 H       -11.7387934155       -0.8466911074        2.3267564133
 H       -11.4489529160       -1.3388021940        3.9661818375
 H        -9.7785693452        0.3946550506        3.1045026560
 H       -10.8695521012        1.2923825499        4.2316388623
 H       -13.4036722905        5.0667300668        1.4501686261
 H       -13.6359304427        3.3807473829        1.2425557685
 H       -14.5279823886        4.4005735384       -0.7316703669
 H       -12.7935078752        3.8651141676       -1.2799125993
 H       -10.6113335681        8.2716168453       -2.8297882476
 H        -9.3758349420        7.0093420189       -2.6526222048
 H       -10.2531808851        6.7356534094       -0.1786475311
 H       -11.1536753625        8.1385903467       -0.3554259729
 H        -5.4466555886        7.2966800905        1.2251471082
 H        -5.8793710537        8.0857596194       -0.2549006218
 H        -5.6175995271        4.9829701331        0.1182680693
 H        -4.3977314927        5.9204406122       -0.5782438762
 H        -5.5671643154        2.7819806585       -4.8171633634
 H        -6.8123879917        3.5975985858       -5.5852428152
 H        -6.9678879706        1.1477145198       -5.2672542757
 H        -8.3843712927        1.9084536208       -4.5474439198
 H       -10.9224586953        2.3088551587       -1.7657703388
 H       -10.5012763284        0.9099088128       -2.8225050395
 H       -10.1756826749        2.5486485785       -3.2570004145
 H        -9.2483088704       -0.2218569112       -3.7455056406
 H        -9.4127376518       -0.9296712916       -2.1922396721
 H        -8.0432834287       -1.3779643730       -3.2780348402
 H        -6.3472504382       -0.7277739453       -1.2727978589
 H        -7.7728954100       -0.2874988983       -0.1914658422
 H        -6.4799386404        0.9792736100       -0.6062772794
 H        -5.3849793259        5.2135715950       -5.0116092256
 H        -3.9841192535        5.8996106181       -4.0724633206
 H        -5.5350996231        6.6554195818       -4.1630067214
 H        -4.7278102426        3.3982700616       -1.5985932164
 H        -3.5614560939        4.4345345253       -2.1908171332
 H        -4.1589678348        3.1505048699       -3.2586156024
 H        -7.9006038218       10.3821492786        1.8691355519
 H        -6.9456041363        9.9828713419        0.4469824494
 H        -6.5419242468        9.1999085709        2.0433829399
 H        -9.5759204489        6.7637107779        1.9445497856
 H       -10.2871101653        8.4105371721        2.0534499809
 H        -8.8905279708        7.8076944754        3.0560806154
 H       -13.3038111298        6.0191138868       -4.3509501021
 H       -14.7186137273        6.1550352624       -3.3243760364
 H       -13.7262508794        4.7409591589       -3.2489617713
 H       -12.8329523721        8.5122734628       -3.1595020578
 H       -12.9163959620        8.5329964143       -1.3914915543
 H       -14.3385713806        8.0775043964       -2.4880604523
 H       -11.5847167945        3.0920286572        4.3917051736
 H       -12.9370490397        3.5183191935        3.4850088725
 H       -11.7772449671        4.6865895341        3.8751715869
 H        -9.0423058187        3.4483035430        1.5424056390
 H        -8.9767621548        3.2204500821        3.3452557185
 H        -9.3597250186        4.7363458175        2.5900903813
 H       -13.6804177672       -2.8105829811        2.5880563607
 H       -14.0918890823       -3.6539733665        4.1243203746
 H       -12.5365250972       -2.7696781553        3.9137552869
 H       -16.2771907569       -2.0285603330        4.0819504187
 H       -15.7190433801       -1.0549411253        2.7852505000
 H       -15.9764438742       -0.2677444317        4.2508766239
 Na       -9.1137522786        4.6133932076       -1.3908073985
