117

 C       -14.7147066654       -0.2569276307        6.6779347470
 C       -14.0816404432       -1.3865561678        5.9723599125
 O       -13.5092453329       -2.3011236944        6.4871543888
 C       -14.1141961562       -1.3470101829        4.3883903045
 C       -13.2042971450       -0.1674387905        4.0211112289
 O       -13.5465125491        0.9542734363        4.2768931556
 C       -11.8283390252       -0.3506888554        3.3107069180
 C       -10.9370944215        0.8931433281        3.3700885767
 C       -11.1610639427        1.8209845205        2.1384227163
 O       -11.3074458759        1.4014545062        1.0099897483
 C       -11.0967676402        3.3449172463        2.3762809441
 C       -11.5783045651        3.9206909339        0.9486816336
 O       -10.8299620119        4.3057541247        0.1017789161
 C       -13.0961438530        4.0227129546        0.7299076574
 C       -13.4049778591        4.5234839816       -0.7067860796
 C       -13.2419067435        6.0958228184       -0.8303562051
 O       -13.2851301757        6.8725440580        0.0725154269
 C       -12.9118395386        6.6072537496       -2.3429703276
 C       -11.4626136138        6.2655862153       -2.4989842261
 O       -11.1813417225        5.1120748292       -2.7634279445
 C       -10.4518258742        7.4242362317       -2.1944901762
 C       -10.3460222144        7.6370649373       -0.7282896500
 C        -9.1443541718        8.4605083123       -0.4617169847
 O        -8.7140380185        9.3239179300       -1.2073943932
 C        -8.3145614024        8.2214973594        0.9533313558
 C        -7.5123497729        6.9539492866        0.5441546550
 O        -7.9944746972        5.8179980358        0.4588223147
 C        -5.9876907902        7.0462206274        0.2484320614
 C        -5.4251366081        5.8294924817       -0.4441132576
 C        -6.0292748296        5.7357103590       -1.8762732315
 O        -6.7703276377        6.6335111083       -2.1843846668
 C        -5.4503278784        4.8294750084       -3.0147982760
 C        -6.6114390858        4.0208497345       -3.6217944100
 O        -7.7225716243        4.1339131364       -3.1999127430
 C        -6.4083117771        3.0295536669       -4.8115787578
 C        -7.2435321544        1.7477350270       -4.6268975773
 C        -6.8495347963        1.1186637925       -3.2715420453
 O        -5.6547294471        1.0111911815       -2.9771875686
 C        -7.8854592361        0.3952712198       -2.2634813352
 C        -8.8181300239        1.5488203880       -1.8095868032
 O        -8.4875071967        2.2832706237       -0.8978641540
 C       -10.1534303053        1.7833331132       -2.5935636824
 C        -8.4572341923       -0.9118632583       -2.9631231852
 C        -7.1376235975       -0.0889892851       -1.0341960375
 C        -4.8360699657        5.6522917992       -4.1150891622
 C        -4.3847950820        3.8564209927       -2.4113181979
 C        -7.5850902990        9.5226590041        1.2292627054
 C        -9.2695388224        7.9145372319        2.1561739290
 C       -13.8550405136        5.8544348068       -3.3623829590
 C       -13.1833488749        8.1485755611       -2.4492835689
 C       -12.1137063370        3.7790945974        3.5536472324
 C        -9.6976593189        3.8750530684        2.6567447553
 C       -13.6896400491       -2.7748249167        3.7756537347
 C       -15.5304152264       -0.9698632305        3.8243626359
 H       -15.7758302683       -0.5340073933        6.8233951943
 H       -14.6690449804        0.6543691577        6.0218657968
 H       -14.3184171372       -0.0177222967        7.6960233386
 H       -12.0046944754       -0.5118513318        2.1779097613
 H       -11.3545372258       -1.2342359103        3.6348527629
 H        -9.9494058265        0.5121741310        3.4305029122
 H       -11.1873450792        1.4817258429        4.2788070611
 H       -13.5529367829        4.6756212838        1.4787045682
 H       -13.5443840601        3.0410602383        0.9811307086
 H       -14.4472975397        4.3897909265       -0.9430971832
 H       -12.7844844821        4.0373792313       -1.3856796381
 H       -10.7844327510        8.3898929817       -2.6433421574
 H        -9.4695190167        7.1266471011       -2.6318766514
 H       -10.4545431585        6.8229566434       -0.0130786569
 H       -11.1432283477        8.2483213029       -0.2734375819
 H        -5.6077362639        7.0477252043        1.2728115582
 H        -5.7127476389        8.0899068656       -0.1977606133
 H        -5.6020443086        4.9079638658        0.0547556454
 H        -4.2852190757        5.8526891168       -0.4802168556
 H        -5.3428762344        2.7069247408       -4.9972732099
 H        -6.6655920671        3.6173406284       -5.7298011211
 H        -7.0988081081        0.9484177834       -5.3824653911
 H        -8.2901354300        2.0708171869       -4.6646515690
 H       -10.7913777621        2.1533924592       -1.8747346984
 H       -10.5815125301        0.8969728875       -3.0537983245
 H       -10.1549834991        2.6615478725       -3.2682516429
 H        -8.6150373925       -0.7848077910       -4.0304139722
 H        -9.4459421978       -1.1743373387       -2.5979491926
 H        -7.7712609875       -1.7304107460       -2.8588667727
 H        -6.3228819210       -0.7465523369       -1.3435343020
 H        -7.8461187661       -0.5689947993       -0.4456843885
 H        -6.7724507568        0.7822430672       -0.5143312981
 H        -5.3206534249        5.3294488336       -5.0654198417
 H        -3.7322762419        5.5988121531       -3.9702693817
 H        -5.0565577486        6.6808188424       -3.9899509556
 H        -4.4258671836        3.7355811324       -1.3346106251
 H        -3.3336014099        4.2204545145       -2.5508772957
 H        -4.4819074640        2.8451571621       -2.7956750491
 H        -8.3141566962       10.3211078058        1.1834087289
 H        -6.8814664511        9.7874967148        0.4240135424
 H        -7.0683996044        9.4575629088        2.2340493202
 H        -9.8888596462        6.9776738806        2.0714439200
 H        -9.9545318849        8.7570673991        2.2954808575
 H        -8.7223127599        7.7125994251        3.0607206235
 H       -13.9616773518        6.6051937971       -4.2039347184
 H       -14.7826006277        5.6391159595       -2.8365174029
 H       -13.5062307665        4.9523861796       -3.8069054099
 H       -13.0049495339        8.5878533343       -3.4942145786
 H       -12.6769201548        8.6907768706       -1.7356687807
 H       -14.3038036464        8.2120212223       -2.3772365853
 H       -11.7377998498        3.8704365049        4.5732370563
 H       -12.9897834563        3.1608131714        3.6965878931
 H       -12.5739009213        4.8003440995        3.3337249656
 H        -8.8579060573        3.2897672081        2.2134275271
 H        -9.5603998634        3.8879353321        3.7440246642
 H        -9.5615383670        4.8805550043        2.2936350960
 H       -13.5613334543       -2.7141748752        2.7387233020
 H       -14.4619298450       -3.4739684562        3.9940287139
 H       -12.7435590810       -3.1507599996        4.1748585345
 H       -16.3376714948       -1.5416481761        4.1838586399
 H       -15.5456902623       -1.0039722355        2.7360357350
 H       -15.7441143281        0.0626938690        4.1193118874
 Na       -9.1437904010        4.5480345757       -1.4121261316
