117

 C       -14.8707746195       -0.1645032475        6.7590235323
 C       -13.9620586994       -1.1391908285        6.0497428207
 O       -13.1622020393       -1.8438740881        6.5854531801
 C       -14.1523650045       -1.0630569823        4.4535051767
 C       -13.2244129052        0.1952772361        4.0633833970
 O       -13.6186063333        1.3472354907        4.1082367258
 C       -11.7973449461       -0.0990018732        3.6766588339
 C       -10.9285520263        1.1392005556        3.4488841142
 C       -11.2963840160        1.9661118324        2.2481296935
 O       -11.5081489596        1.4683682982        1.1434583505
 C       -11.3907134855        3.5258612069        2.4514434435
 C       -11.8482483361        4.1854413534        1.0180244125
 O       -11.0761909805        4.7586439641        0.2660741442
 C       -13.3634894814        3.9893182446        0.7094350990
 C       -13.6527801427        4.4267617940       -0.7766521501
 C       -13.4388283399        5.9900642014       -0.9052505593
 O       -13.2829103541        6.6479187519        0.1180166033
 C       -13.0429616837        6.5385765121       -2.3945202688
 C       -11.5597873094        6.2740365733       -2.4695804759
 O       -11.1096713335        5.1207631567       -2.5419085892
 C       -10.6253963360        7.5267123124       -2.2259100887
 C       -10.2794103043        7.7151588900       -0.7559489273
 C        -9.1101551835        8.5889109483       -0.4241992771
 O        -8.7887379781        9.5633627289       -1.0395511533
 C        -8.1969053547        8.0884575364        0.8706126164
 C        -7.4648279791        6.8180168307        0.5741283582
 O        -8.1248945230        5.7733705837        0.4937279328
 C        -6.0291790164        6.8806741776        0.2118916782
 C        -5.4815317096        5.6974405502       -0.5485736900
 C        -5.8712755410        5.7934149971       -2.0282838678
 O        -6.8397243148        6.5037019683       -2.3514470316
 C        -5.2472795959        4.7385704837       -2.9632794948
 C        -6.4339450253        3.8577580268       -3.5683470230
 O        -7.5876301374        4.0378531113       -3.2336588940
 C        -6.0684685014        2.9056950449       -4.7012412326
 C        -6.9157094058        1.6286414983       -4.5640736945
 C        -6.6205739297        0.7551609453       -3.3078643951
 O        -5.4565908248        0.3963797829       -3.0179163519
 C        -7.8165666253        0.1442072172       -2.4575220148
 C        -8.7462186272        1.3364226053       -2.0503942454
 O        -8.2551611104        2.2169682128       -1.3805362965
 C       -10.2050567948        1.4702138693       -2.6456329003
 C        -8.3956633587       -0.9517259826       -3.3572801503
 C        -7.2491698330       -0.5173923979       -1.1361702223
 C        -4.5749833362        5.4654760445       -4.1837255052
 C        -4.2632297862        3.7680528510       -2.3077844704
 C        -7.2510155774        9.2915790838        1.2185464615
 C        -9.1932933731        7.9222580956        2.0503578059
 C       -13.7682026949        5.7782633325       -3.5254039672
 C       -13.4960369632        8.0204703508       -2.4155579831
 C       -12.4850005244        3.8883984802        3.5054385631
 C       -10.0016899612        4.0714512409        2.8553311181
 C       -13.6473282727       -2.3129530743        3.8041891597
 C       -15.6137225037       -0.7139584012        4.0321837016
 H       -15.9396454512       -0.4339545700        6.5830232227
 H       -14.6831335790        0.8698595797        6.5116787461
 H       -14.6990246018       -0.1539847524        7.8335062541
 H       -11.8852886032       -0.7177706932        2.7363337955
 H       -11.3846783589       -0.6830835732        4.4184119357
 H        -9.9305787514        0.7634390951        3.2932586335
 H       -11.0240416793        1.7350810762        4.4039492113
 H       -14.0835993183        4.4679677164        1.4112997040
 H       -13.5318526601        2.8839758801        0.7888941048
 H       -14.7032028428        4.2502599868       -1.0036628290
 H       -13.0830516716        3.9260498345       -1.4943219428
 H       -11.0010310710        8.4424827731       -2.6958432335
 H        -9.7506395253        7.3261836279       -2.8567735313
 H       -10.3100102220        6.8225085815       -0.1162568247
 H       -11.0976873973        8.1687821592       -0.1942252587
 H        -5.4689239922        7.0099145701        1.1501276602
 H        -5.9964671038        7.9406146961       -0.3226820557
 H        -5.9605097323        4.8148075667       -0.2025929352
 H        -4.3667367996        5.5804325642       -0.3812556159
 H        -5.0115130606        2.6289379503       -4.7111431802
 H        -6.3096549042        3.3323459001       -5.6650732623
 H        -6.7824579223        1.1040043656       -5.5138030158
 H        -7.9566368258        1.9614809521       -4.5496608159
 H       -10.9243747401        1.2570476656       -1.9311965480
 H       -10.3222115725        0.7301319586       -3.4228948861
 H       -10.4475898657        2.4721917815       -2.9802935103
 H        -8.5954632664       -0.6090054109       -4.3350151574
 H        -9.2760875933       -1.4366429230       -2.8993550461
 H        -7.6352270908       -1.7679377716       -3.4196368239
 H        -6.4968854579       -1.2779454346       -1.5157430254
 H        -8.0680695312       -0.9582238509       -0.6461654435
 H        -6.7685233739        0.3076437367       -0.5283515354
 H        -3.6566014427        4.8870335049       -4.4458058611
 H        -4.2276363227        6.4919286474       -3.8625958709
 H        -5.2632095377        5.5671005130       -4.9337488218
 H        -4.6731417991        2.8796668674       -2.1715010824
 H        -3.8575925165        4.0357755564       -1.3343603083
 H        -3.3664154256        3.4846560978       -2.9432099186
 H        -7.8821581049        9.9541693038        1.8512075119
 H        -6.9050632225        9.8511773078        0.3366260033
 H        -6.3374996587        8.9030944591        1.7563979277
 H        -9.7729931884        6.9803255753        1.8847374277
 H        -9.8947792355        8.7843316420        2.1223577816
 H        -8.6194256861        7.9153810026        3.0097478595
 H       -13.3451657227        6.0423857061       -4.5100988170
 H       -14.8399814253        6.0416254807       -3.5099686476
 H       -13.6173662834        4.7674608033       -3.4034359986
 H       -13.2100591570        8.5533722788       -3.3628834930
 H       -13.1526253117        8.4683047253       -1.5023551752
 H       -14.5976115911        8.0736863286       -2.3711534971
 H       -12.4646488506        3.3913698587        4.4732350520
 H       -13.4556172478        3.6942183539        3.0984044389
 H       -12.4830183511        5.0068463209        3.7259848433
 H        -9.3470920464        4.2037568877        1.9565403497
 H        -9.4383807349        3.3667097903        3.4416291764
 H       -10.1577007534        5.0130254399        3.3450232298
 H       -13.6693790729       -2.2398193598        2.7178983154
 H       -14.2460354733       -3.1577687520        4.1614979037
 H       -12.6193850517       -2.5804469998        4.1780670301
 H       -16.3210966295       -1.3868860268        4.4332388820
 H       -15.6772858086       -0.7134912509        2.9585522728
 H       -15.9577491215        0.2108880959        4.4439766787
 Na       -9.0333442065        4.4680409646       -1.3059679718
