117

 C       -15.1883098530       -0.5950367130        7.4581250724
 C       -14.0511290909       -0.7022403960        6.4379127879
 O       -12.9251994030       -0.8780253743        6.7884224555
 C       -14.2771367747       -0.6780212186        4.8465375457
 C       -13.5487587415        0.6274616006        4.2499157255
 O       -14.1391981017        1.5756818977        3.8532230618
 C       -11.9797464074        0.4507135374        4.2007480446
 C       -11.1976838568        1.7649356895        3.9105845912
 C       -11.4133198111        2.2635349682        2.4887465695
 O       -11.6761968882        1.5268863016        1.5848690480
 C       -11.1452107696        3.8383040971        2.3116625591
 C       -11.5522955980        4.1033265400        0.8259729802
 O       -10.7295124271        3.9175183664       -0.0486643678
 C       -13.0802860695        4.2441787872        0.5000384966
 C       -13.2881797261        4.4104363501       -1.0764426700
 C       -13.3171565139        5.9897853965       -1.3840568080
 O       -13.7053502834        6.8299448197       -0.6248683518
 C       -12.7056198423        6.5166977002       -2.7690895598
 C       -11.2030502135        6.2785427408       -2.5316831519
 O       -10.7949390749        5.1237380785       -2.6571762064
 C       -10.2727816122        7.4370693402       -2.0695834184
 C       -10.3819910149        7.6794270534       -0.4799452049
 C        -9.2973385321        8.6793881703       -0.0798380997
 O        -9.0552975580        9.6753187103       -0.7274105028
 C        -8.2590709217        8.2331254957        0.9577599185
 C        -7.6506064642        6.9390892268        0.4646835807
 O        -8.1970898256        5.8790500562        0.6150564800
 C        -6.2294895026        6.9974416205       -0.1324803634
 C        -5.7628372842        5.6352835481       -0.5621313227
 C        -6.1782247803        5.4012061690       -2.1018930343
 O        -7.0242774402        6.0121649913       -2.6938486030
 C        -5.4140197261        4.3496816541       -2.8877264895
 C        -6.4949057665        3.4973693453       -3.6829184294
 O        -7.6730289301        3.5995358776       -3.3880647677
 C        -5.9686353803        2.4804976324       -4.7624630474
 C        -6.6938007078        1.1038273736       -4.7434124894
 C        -6.5871412743        0.6011773702       -3.3123374939
 O        -5.5699705282        0.5579331617       -2.6122179246
 C        -7.9707738041       -0.0258723521       -2.6631169374
 C        -8.7345179289        1.1907726293       -2.0624698415
 O        -8.0899071741        1.9684787991       -1.3169645851
 C       -10.2544918106        1.4376280800       -2.2637532501
 C        -8.8701610389       -0.8084333152       -3.6100800921
 C        -7.4525833537       -1.0503654701       -1.5686794108
 C        -4.4608616195        5.1050898164       -3.8571746893
 C        -4.6171613084        3.2340270382       -2.1054365609
 C        -7.2286754810        9.3926298874        1.1068813081
 C        -9.0491152493        8.1269057851        2.2442714325
 C       -13.0546710268        5.7238041790       -4.0140620832
 C       -13.1055131406        7.9716665757       -3.0194781428
 C       -12.1375155292        4.6601788037        3.1915589688
 C        -9.6271639545        4.1457314985        2.4967577645
 C       -13.7363912920       -2.0085280210        4.2830312806
 C       -15.7713750089       -0.4868545854        4.6178354103
 H       -15.9639973912       -1.2256246272        7.1709688799
 H       -15.6969740991        0.3594974143        7.4019236164
 H       -14.9033326495       -0.8519742278        8.4613499932
 H       -11.7722273289       -0.1955648744        3.4033788304
 H       -11.6111928996       -0.0452971377        5.1234749676
 H       -10.1005695519        1.5763176364        4.1091548083
 H       -11.3664318221        2.5849602092        4.6487791846
 H       -13.4456348041        5.2077936787        0.9876908853
 H       -13.5546629526        3.3078928321        0.8573873080
 H       -14.1320415169        3.9820340959       -1.4891743734
 H       -12.5238356522        4.0409292457       -1.7883916086
 H       -10.5540173196        8.3030509851       -2.6700294532
 H        -9.2580357197        7.1847863999       -2.3634011077
 H       -10.0200567937        6.8386426482        0.1114209352
 H       -11.3989068366        7.9508854962       -0.1491293113
 H        -5.5022630390        7.5247660338        0.6341892967
 H        -6.4855480243        7.6655385353       -0.9145867535
 H        -6.2899495843        4.8896277913        0.0648239166
 H        -4.7050734269        5.5355794908       -0.4468675690
 H        -4.9522899289        2.2237918514       -4.6492183290
 H        -6.0992163175        2.9782185232       -5.6793600440
 H        -6.2871732018        0.4732469015       -5.5074138292
 H        -7.7687151045        1.2478342653       -4.9336355680
 H       -10.9143389663        0.5401337384       -2.3844560871
 H       -10.3396318465        2.0075852853       -3.1975454293
 H       -10.6064682143        2.1659541345       -1.4993302109
 H        -9.4155674015        0.0217545958       -4.1992816615
 H        -9.6675019693       -1.2844141077       -3.0699178312
 H        -8.3132593496       -1.4312654794       -4.2627768378
 H        -7.0496778701       -1.8779201472       -2.1811456872
 H        -8.3844546539       -1.3545678384       -1.0134270291
 H        -6.6587801659       -0.5620725558       -0.9906825724
 H        -3.7142204337        4.4158376594       -4.2132482695
 H        -4.1012977495        5.9532307269       -3.3573434442
 H        -5.0493883971        5.4108273388       -4.7690794267
 H        -5.2330931361        2.4710036423       -1.7542040278
 H        -4.0694059021        3.5673000539       -1.1521205745
 H        -3.9398073982        2.8312049295       -2.8139725267
 H        -7.6762237135       10.3524038233        1.1265863084
 H        -6.5865720703        9.4608171624        0.2257443188
 H        -6.6144617051        9.2000463833        1.9380426658
 H        -9.4696397242        7.1529727573        2.2493815788
 H        -9.7745862669        8.8999991350        2.3171719548
 H        -8.3078238984        8.0572522074        3.0008947205
 H       -12.2929682340        5.7262011915       -4.7555793958
 H       -14.0097430916        5.9889627387       -4.3485866515
 H       -13.1846690956        4.6383774530       -3.7099636033
 H       -12.5988194990        8.2881089785       -3.9225689593
 H       -12.6864747517        8.5878565500       -2.2905124598
 H       -14.1970728938        8.1081769986       -3.2110199409
 H       -11.7929960011        4.8897901510        4.1966809367
 H       -13.1438348826        4.2200675754        3.2475622889
 H       -12.1905779040        5.5473153338        2.6658444907
 H        -9.1383538896        3.6869297700        1.6877235669
 H        -9.2937359731        3.9663611083        3.5166678161
 H        -9.5155504021        5.2295488661        2.2966396637
 H       -13.8431649148       -2.1743253060        3.1884121760
 H       -14.2830914224       -2.7806878105        4.8334644472
 H       -12.7110519792       -2.1257478470        4.5384788991
 H       -16.2200279040       -1.4870167848        4.8753713874
 H       -16.0879297818       -0.2982576057        3.5776346153
 H       -16.0988747668        0.3844657921        5.2375719007
 Na       -8.8220440067        4.1940563670       -1.3696796860
