117

 C       -15.2405932872       -0.6527923360        7.4582542325
 C       -14.0515439982       -0.6992315485        6.5550694038
 O       -12.9247770634       -0.8604231041        7.0120733549
 C       -14.3483917607       -0.6385859889        5.0178962333
 C       -13.5712615466        0.6053947135        4.3392868754
 O       -14.1858518902        1.5657719439        3.9498866851
 C       -12.0509633071        0.4636451585        4.1494526290
 C       -11.2264770406        1.7144812235        3.9700803660
 C       -11.3553895950        2.3025874977        2.5634249817
 O       -11.5536579394        1.5696584468        1.5962277835
 C       -11.1479620362        3.8514942869        2.2067129688
 C       -11.5671005289        3.9857283497        0.7162985613
 O       -10.7100881415        3.8897843963       -0.1578216783
 C       -12.9986521676        4.2910881609        0.4032652292
 C       -13.2493685073        4.5452478934       -1.1195179535
 C       -13.2794671575        5.9660487065       -1.4750187596
 O       -13.6970372828        6.7955368081       -0.6896222944
 C       -12.6038430929        6.4684633672       -2.8757575520
 C       -11.0202811832        6.2945886005       -2.6185048708
 O       -10.5075127583        5.1936130962       -2.7448184956
 C       -10.1655034749        7.3887524809       -2.0905008497
 C       -10.3846744447        7.5591041070       -0.5751252247
 C        -9.2742300772        8.6443632345       -0.2098030748
 O        -9.3310957893        9.7079114721       -0.7538561235
 C        -8.2718089374        8.2686703827        1.0184519951
 C        -7.5930175320        6.9408846776        0.5127392014
 O        -8.2391825127        5.9330539554        0.5195833382
 C        -6.1989739607        6.9952108162       -0.1881246503
 C        -5.7643665126        5.6221097966       -0.6967453211
 C        -6.1091556146        5.3250800087       -2.1477203187
 O        -7.0596571165        5.9833821069       -2.5973654983
 C        -5.4151292277        4.2417727496       -2.9713554430
 C        -6.5139281913        3.4707223357       -3.7147089738
 O        -7.7052065436        3.5250367247       -3.3853428090
 C        -6.0187709919        2.5471384825       -4.7622265935
 C        -6.6383192145        1.1178810416       -4.7148913810
 C        -6.7721828877        0.5136142504       -3.3565787672
 O        -5.7708582481        0.5335969561       -2.6793108967
 C        -8.0713223723       -0.0679414159       -2.6523993262
 C        -8.6958173798        1.1555342082       -1.9470944028
 O        -8.0493075727        1.9624694604       -1.2604599824
 C       -10.1521894798        1.3892021825       -2.2688321730
 C        -8.9724668754       -0.8177967197       -3.6308258461
 C        -7.4644232922       -1.0278999390       -1.5243049747
 C        -4.3970964534        4.9478315445       -3.9523784294
 C        -4.6686113055        3.2220576767       -2.0406228554
 C        -7.3535987289        9.5470720409        1.2142781287
 C        -9.1143846224        8.1514622694        2.3694722095
 C       -13.1555901663        5.6923005538       -4.1485525232
 C       -12.9158401021        7.9670049281       -2.9818381068
 C       -11.9841273986        4.7082813724        3.2837048142
 C        -9.6769037280        4.1467915423        2.4895234408
 C       -13.7650584878       -1.8559608246        4.3556498017
 C       -15.9012512798       -0.5003472847        4.6606095077
 H       -15.9821557913       -1.3398989405        7.1383724287
 H       -15.8084959373        0.2971158736        7.3784796818
 H       -14.9940404787       -0.9176520238        8.4839294920
 H       -11.8397467538       -0.1871451944        3.2991792877
 H       -11.6522161122       -0.0796146107        5.0690097206
 H       -10.1677640125        1.4677309708        4.2810311133
 H       -11.4527619642        2.4670591665        4.6751661732
 H       -13.2761343022        5.1629880382        1.0107910757
 H       -13.5443214320        3.3558114479        0.6229879445
 H       -14.2577351406        4.2670379189       -1.3582662695
 H       -12.7078199356        4.0539489178       -1.8716676126
 H       -10.3889547650        8.2942545827       -2.6773137221
 H        -9.1098300775        7.0852958355       -2.2763950747
 H       -10.2653083030        6.6716589417       -0.0100995148
 H       -11.3259561682        8.0893613683       -0.3609979905
 H        -5.5269783003        7.2467002381        0.6364186980
 H        -6.2971376202        7.8523910662       -0.8765236453
 H        -6.3368153997        4.8143699111       -0.1174747451
 H        -4.7251273005        5.5003258763       -0.5050018421
 H        -4.9558564961        2.3559417718       -4.6768267486
 H        -6.1697431337        2.9897954122       -5.7623090226
 H        -5.9216759703        0.5396569058       -5.3148260575
 H        -7.5608400693        1.0888187361       -5.2431884274
 H       -10.7338789043        0.5294008841       -2.2723670662
 H       -10.1659432770        1.7973685038       -3.2734551461
 H       -10.5940374960        2.1847160215       -1.6292871562
 H        -9.5582244096       -0.0967627464       -4.2458386357
 H        -9.7151210005       -1.4514800424       -3.1272501026
 H        -8.3094105144       -1.3752715351       -4.2645138938
 H        -7.0109904216       -1.8870720879       -2.1304538412
 H        -8.2909949285       -1.3187641573       -0.9552708455
 H        -6.6433942830       -0.4550705572       -0.9948410897
 H        -3.8822485443        4.1555465305       -4.5214566633
 H        -3.7955049443        5.5851659128       -3.2923843666
 H        -4.8523265276        5.5462363249       -4.6506551821
 H        -5.3618847068        2.8787766008       -1.3432284352
 H        -3.8623604415        3.6349645595       -1.3873733686
 H        -4.3346184816        2.3658809601       -2.6667421027
 H        -7.9034917886       10.4518626033        1.1212937482
 H        -6.5895015501        9.6925947375        0.4418353040
 H        -6.7834562783        9.4362190623        2.1733057915
 H        -9.7438922445        7.2259273409        2.2792048037
 H        -9.7367700783        9.0513898739        2.4466865453
 H        -8.4273848909        7.9462339071        3.1518822324
 H       -12.4500038342        5.8498094702       -4.9880124628
 H       -14.1591225079        5.9534079480       -4.3345323923
 H       -13.2099818720        4.6577301045       -4.0245744211
 H       -12.4996322509        8.5236117911       -3.8634998677
 H       -12.5022483606        8.4120739323       -2.1330963503
 H       -14.0277586326        8.0852580156       -3.0576779673
 H       -11.4786729380        4.6962929235        4.2428364201
 H       -12.9630460003        4.3020672317        3.4058954228
 H       -12.0230895463        5.7499825629        2.9210682721
 H        -9.0388648884        3.8791831792        1.6641315602
 H        -9.5457475593        3.6549692677        3.4613866381
 H        -9.5252263586        5.1979499930        2.6821848407
 H       -13.7671346590       -1.7135572295        3.2592090443
 H       -14.4025405102       -2.7383051078        4.6238698093
 H       -12.7168702028       -2.1036295745        4.6762326871
 H       -16.3959561420       -1.4341180371        4.8664848295
 H       -15.9735652606       -0.4171319587        3.5504972422
 H       -16.3577239044        0.4316935946        5.0950391814
 Na       -8.7600176439        4.3762737664       -1.2935986970
