117

 C       -15.3521542264       -0.7001620174        7.5772961415
 C       -14.1051501924       -0.7078681618        6.6447458180
 O       -12.9540803824       -0.7906440265        7.0580449864
 C       -14.3482751469       -0.5788346341        5.0328220703
 C       -13.5931606789        0.6193828084        4.4685612326
 O       -14.1838918915        1.6444087514        4.0455645212
 C       -12.1023397289        0.4302750245        4.2199530787
 C       -11.3657819545        1.7382367705        3.9937044808
 C       -11.4166070347        2.2623036541        2.5631579119
 O       -11.4525986428        1.5148876210        1.6029051656
 C       -11.1096521653        3.8004766313        2.2832175756
 C       -11.5156309978        4.0502846296        0.6982576922
 O       -10.7124525721        3.8785182867       -0.1811481531
 C       -13.0441554773        4.2937690045        0.3159743841
 C       -13.2510053741        4.4094040268       -1.1756257626
 C       -13.1708628077        5.9914760041       -1.5468775262
 O       -13.6405115814        6.8445099635       -0.8395794989
 C       -12.4581186310        6.5098688910       -2.8578042468
 C       -10.9051593150        6.1885273899       -2.7364194839
 O       -10.4174928229        5.0814008881       -2.8986504962
 C       -10.1196295635        7.4030621067       -2.1702920287
 C       -10.3644912893        7.5186244098       -0.7035194201
 C        -9.4341513043        8.7010987573       -0.1126163766
 O        -9.4216971790        9.7629134432       -0.6849895976
 C        -8.3380286870        8.3349896066        1.0028281745
 C        -7.5896395449        7.0722878711        0.5210901846
 O        -8.2796092468        6.0405130549        0.4813580325
 C        -6.1364036969        7.0127367711       -0.1152597811
 C        -5.6585533954        5.6312473172       -0.6063905884
 C        -6.1480432269        5.4233388539       -2.0817368088
 O        -7.1129101874        6.0033310926       -2.6027928200
 C        -5.4325168496        4.1965239585       -2.9057062228
 C        -6.5506735284        3.3662362817       -3.7347540200
 O        -7.7123730136        3.4240162612       -3.4439393724
 C        -6.0778101771        2.4564203859       -4.9272248082
 C        -6.8086622189        1.0535723642       -4.8659991718
 C        -6.7507232541        0.4957322979       -3.2971701375
 O        -5.7114309883        0.5564644922       -2.7123101615
 C        -8.0407318061       -0.0974662910       -2.6507849677
 C        -8.7176319602        1.1811261878       -1.9164273262
 O        -8.0492528323        1.8911398151       -1.2194278757
 C       -10.1808179489        1.4642798356       -2.2427870875
 C        -8.9769764952       -0.8122039498       -3.6434602326
 C        -7.6351636618       -1.0818080955       -1.4591277141
 C        -4.3659477715        4.8014988314       -3.9668225761
 C        -4.6814687118        3.2889156250       -1.9795462173
 C        -7.4119971272        9.5727164604        1.2512755254
 C        -9.1026657628        8.0710840175        2.2984998294
 C       -13.1124993200        5.7133364443       -4.0313672020
 C       -12.7852784756        8.0338780616       -3.0540713276
 C       -11.9307468400        4.7107390371        3.2566808353
 C        -9.6014876100        4.1239269849        2.4795977395
 C       -13.8106861456       -1.8944875794        4.3954089948
 C       -15.8401971332       -0.4603740251        4.7138214681
 H       -16.1893219609       -1.4780571523        7.4419244549
 H       -15.9173043054        0.2166964378        7.4232721477
 H       -15.0151456738       -0.8114257362        8.6121072388
 H       -11.9572963927       -0.1785119866        3.2225285374
 H       -11.6399075068       -0.1623884730        5.0165794658
 H       -10.3403065921        1.6282531164        4.2617569502
 H       -11.6570857423        2.5077750342        4.6943156307
 H       -13.3471406480        5.1885546945        0.8090478082
 H       -13.5548896672        3.3930548755        0.6298914695
 H       -14.2606684599        4.0598112260       -1.5694448591
 H       -12.5468679662        3.8987863867       -1.8076241712
 H       -10.3843767890        8.3148645524       -2.7524731885
 H        -9.0461376061        7.1478071742       -2.3385559043
 H       -10.2396079603        6.5622901412       -0.1756243428
 H       -11.3254318099        7.9891661415       -0.5470033803
 H        -5.5178569599        7.4151440148        0.5840429018
 H        -6.2172252117        7.7099702057       -1.0050978718
 H        -5.8852953988        4.7014978887       -0.0775910005
 H        -4.5404888419        5.7294610413       -0.7138564933
 H        -4.9817258267        2.1901090845       -4.9661400671
 H        -6.2964177458        2.9973094728       -5.9082014645
 H        -6.2642557450        0.3809204972       -5.5586089292
 H        -7.8087250401        1.1657108353       -5.2778446680
 H       -10.6761418908        0.5377137201       -1.9773993330
 H       -10.4216300544        1.6855980476       -3.2649159814
 H       -10.5904788524        2.1949835988       -1.6285409276
 H        -9.4158947164       -0.2169959083       -4.3575250071
 H        -9.7586252827       -1.2660168064       -3.0143992528
 H        -8.3709875506       -1.6373205450       -4.1144569857
 H        -7.0756747261       -1.8833417029       -1.8966570149
 H        -8.6001377171       -1.3949289204       -1.0761849832
 H        -7.0064152523       -0.5039644279       -0.7930871885
 H        -4.2438602384        4.0539726148       -4.7201020266
 H        -3.4905567037        5.1938022638       -3.4158655521
 H        -4.7668577498        5.6588586876       -4.4964494787
 H        -5.2198745875        3.2651929410       -0.9225298575
 H        -3.7495340457        3.6225994699       -1.7255345391
 H        -4.6715532423        2.2595216804       -2.3894318855
 H        -8.0162129576       10.5211868606        1.2279563670
 H        -6.6794099834        9.8019838282        0.4700846036
 H        -6.8114553836        9.4109530024        2.1815238221
 H        -9.8744862774        7.3216668638        2.0234060677
 H        -9.6150926481        9.0353538506        2.4896529974
 H        -8.4769504171        7.6198610507        3.1104460401
 H       -12.6256418208        6.0762106877       -4.9147979297
 H       -14.2234614035        5.8052185605       -4.0211095597
 H       -12.9700841228        4.6773070362       -4.0167289216
 H       -12.3780715398        8.5789606254       -3.9102551855
 H       -12.5057326821        8.6165246566       -2.0815910713
 H       -13.8284315623        8.0195603844       -3.2388974646
 H       -11.5453955755        4.5620434997        4.2649932842
 H       -12.9693093476        4.4021480873        3.2316163589
 H       -11.7817074846        5.8041722282        2.9659585276
 H        -9.1371654712        3.7875295007        1.5206334257
 H        -9.2757034847        3.6244699690        3.3704568766
 H        -9.4287518251        5.1768139619        2.5673059154
 H       -13.6869272946       -1.7079605007        3.3192283613
 H       -14.5399867176       -2.7181883419        4.5563283003
 H       -12.8060275217       -2.2614101446        4.7788287628
 H       -16.3152941812       -1.3595863171        5.0600771880
 H       -15.8992327421       -0.5295859287        3.6294369913
 H       -16.2699414385        0.4665514818        5.0250112007
 Na       -8.6579436505        4.4939162702       -1.2877258286
