117

 C       -15.4545154260       -0.6463938919        7.8923895157
 C       -14.2829506559       -0.4617323764        6.9669875850
 O       -13.1631398318       -0.5337418767        7.3813691791
 C       -14.6049717919       -0.4395828536        5.4075434377
 C       -13.8990175508        0.7926154847        4.7497057225
 O       -14.4151800802        1.9197122484        4.6841379612
 C       -12.4200122939        0.5768985327        4.3630211935
 C       -11.6597260893        1.9196757069        3.9688029792
 C       -11.6987026841        2.2932536472        2.5263825938
 O       -11.9925600454        1.4817055284        1.6968279377
 C       -11.2345568246        3.7363852191        2.2048140965
 C       -11.5597489312        4.1356482150        0.6514106239
 O       -10.6254528798        4.3656460271       -0.0900453462
 C       -13.0249748835        4.0971125314        0.1509325168
 C       -13.0388596332        4.2567967070       -1.3820763332
 C       -12.8479009185        5.8179871828       -1.7267658478
 O       -13.1356045086        6.5832110724       -0.8092420866
 C       -12.2614824942        6.2339527619       -3.1552860412
 C       -10.7127303350        6.2482290492       -2.8948842301
 O       -10.1110655587        5.2013724483       -2.8180423381
 C       -10.0616274030        7.6029629835       -2.4273147488
 C       -10.2989215665        7.7203036209       -0.9139873467
 C        -9.3843049689        8.8011913035       -0.2223190478
 O        -9.4619395232        9.9803844689       -0.4609114872
 C        -8.1521456538        8.3024121115        0.8030329790
 C        -7.3477641246        7.2440194373        0.0850531643
 O        -7.9536773504        6.1877579597       -0.0490405861
 C        -5.8945401969        7.4214272914       -0.4206401709
 C        -5.2453899180        6.1906979527       -1.0572481197
 C        -5.8882466274        5.6087520699       -2.3337856875
 O        -6.8822352242        6.1142832052       -2.8665151157
 C        -5.3078059593        4.2467646139       -2.8748537981
 C        -6.3486222507        3.4551781883       -3.6817485977
 O        -7.5251681852        3.6902906019       -3.6651162765
 C        -5.9756920331        2.1626217475       -4.4129822630
 C        -7.1869875237        1.1685436966       -4.3762703405
 C        -7.0726578678        0.1465206700       -3.2605037897
 O        -6.0717073793       -0.5073282457       -3.1632749944
 C        -8.3421571428       -0.1672210744       -2.3660108805
 C        -8.9353797332        1.1612982079       -1.9153749579
 O        -8.2701804335        2.0152865640       -1.3470392789
 C       -10.3668655220        1.4170402525       -2.3807096583
 C        -9.1996748765       -1.0980442685       -3.1794113686
 C        -7.8382082536       -0.9254106247       -1.0495386677
 C        -4.1013907038        4.6418953570       -3.8447998499
 C        -4.7314225455        3.3263245127       -1.7634871494
 C        -7.4841353683        9.6000025444        1.4575870503
 C        -8.9143062462        7.6919349735        2.0101151503
 C       -12.4168738949        5.1418672053       -4.2236307577
 C       -12.9506945178        7.5623146892       -3.5712559129
 C       -11.7636578364        4.8014227102        3.2220054991
 C        -9.6768204994        3.6738671200        2.3019904428
 C       -14.0614808701       -1.7774177317        4.7749326256
 C       -16.1778511408       -0.3790422840        5.0685295089
 H       -16.1930773790       -1.4379345530        7.5729570471
 H       -16.0597327135        0.2343055187        8.0225766726
 H       -15.1483541896       -0.9661163924        8.8642463081
 H       -12.3237104020       -0.1295297820        3.5707918798
 H       -11.8513240188        0.1456282836        5.1451627473
 H       -10.5442668817        1.9356594900        4.2968641292
 H       -12.1075960507        2.7116400568        4.5504534758
 H       -13.5140784593        4.9041792246        0.7416115881
 H       -13.4437442401        3.0934392458        0.5001597782
 H       -14.0313773570        3.9468104348       -1.7469853991
 H       -12.2217083251        3.7684701538       -1.8408515152
 H       -10.6612249767        8.3457817036       -2.9023358085
 H        -9.0149721409        7.5700735522       -2.7273399133
 H       -10.1413242220        6.7983100076       -0.3499811180
 H       -11.3267408274        8.1296836101       -0.7955361054
 H        -5.3371424878        7.8132731567        0.3960874261
 H        -6.0345521012        8.3437642524       -1.1461179016
 H        -5.2923476710        5.2927502007       -0.4270747895
 H        -4.2109540516        6.3626065061       -1.1803789480
 H        -5.0558101493        1.6380871350       -4.3129447884
 H        -5.9416228615        2.5168800693       -5.4303396303
 H        -7.2932214449        0.7117520121       -5.3978875744
 H        -8.0759319830        1.7633122497       -4.2111067695
 H       -11.0942772142        0.5825444212       -2.1795773546
 H       -10.2333590339        1.4543531368       -3.5193130937
 H       -10.8488466757        2.3215160140       -2.0581246363
 H        -9.3103285361       -0.6918631901       -4.1219616228
 H       -10.1989668795       -1.3137514827       -2.7415422009
 H        -8.6701679068       -2.0788757820       -3.3357128896
 H        -7.2911673065       -1.7357473039       -1.4101687870
 H        -8.7183337944       -1.2708139425       -0.4400286924
 H        -7.2776929200       -0.2452423637       -0.4560920757
 H        -3.8356315337        3.8248089305       -4.4887240388
 H        -3.1624982344        4.7545918438       -3.2505878362
 H        -4.3220794079        5.5524855977       -4.4078567665
 H        -5.3652141266        3.4156613468       -0.8029700659
 H        -3.7191993512        3.4535752610       -1.6830517682
 H        -4.8969405038        2.3012507487       -2.0365260222
 H        -8.2945352541       10.1210664754        1.9743648416
 H        -6.9963748440       10.2294153885        0.7655463527
 H        -6.7472944855        9.4357090215        2.2555217912
 H        -9.5330745588        6.8938091119        1.5964076284
 H        -9.5319025251        8.4578163463        2.4822237602
 H        -8.1790128558        7.3955721581        2.7486776506
 H       -11.7890671402        5.1805724389       -5.1348546211
 H       -13.4525853451        5.2719651700       -4.6901826582
 H       -12.3046249202        4.1661691030       -3.8042605769
 H       -12.5601731133        7.9963376548       -4.4400120180
 H       -13.0209861313        8.2872215928       -2.6835207225
 H       -13.9608277959        7.4682803187       -3.6932873811
 H       -11.3550533560        4.5476548585        4.1936350125
 H       -12.8289637293        4.9176291109        3.1719280986
 H       -11.2336684232        5.7466104270        2.8700581370
 H        -9.3243985296        3.0443850189        1.4511071668
 H        -9.3870583589        3.1204445588        3.1791296552
 H        -9.3362290464        4.6765481940        2.2552769621
 H       -13.8478120946       -1.7018794043        3.7388628562
 H       -14.7771994087       -2.5759386410        4.8832673726
 H       -13.1503915671       -2.0610225772        5.3364063975
 H       -16.6219198336       -1.2590954338        5.4348380837
 H       -16.1926514027       -0.3719405403        3.9911560019
 H       -16.6615272622        0.4642170470        5.4847481856
 Na       -8.3803583843        4.3500203928       -1.4998544108
