117

 C       -15.4859882865       -0.6104620086        7.9986340562
 C       -14.3563628873       -0.5013497030        7.0133199712
 O       -13.1969643627       -0.5295692747        7.2999680495
 C       -14.6194378197       -0.4321066754        5.3893721441
 C       -13.8694762330        0.8056200439        4.8053801898
 O       -14.4947119810        1.8238500701        4.6777247388
 C       -12.4403279455        0.6543051045        4.3536159484
 C       -11.7461316943        1.9893307839        4.0605286378
 C       -11.9073884459        2.3840223817        2.5077310849
 O       -12.2254449855        1.6033488463        1.6383286500
 C       -11.2609491446        3.7909287062        2.1207904825
 C       -11.5623149840        4.0769259091        0.6445667437
 O       -10.6415441881        4.3692431476       -0.1129720332
 C       -13.0000509848        4.0500193489        0.1543699779
 C       -13.0786700060        4.1845412390       -1.3489270006
 C       -12.8887365169        5.6737995074       -1.7007843361
 O       -13.1528878709        6.5600128749       -0.9348128631
 C       -12.2739784130        6.1508503097       -3.0640670427
 C       -10.7751471399        6.3276732617       -2.8262823810
 O       -10.0665659948        5.3134184180       -2.8451594814
 C        -9.9997668637        7.6501233203       -2.3069247916
 C       -10.1820612306        7.6940264739       -0.8422894475
 C        -9.2297209051        8.7974958921       -0.2540779709
 O        -9.4082601033        9.9109982019       -0.6090873842
 C        -8.2207527884        8.3277073547        0.8218670817
 C        -7.3111319391        7.2749024752        0.1786449686
 O        -7.7951900720        6.1348261103       -0.0536382620
 C        -5.9041420273        7.5719050261       -0.4856658459
 C        -5.2253272589        6.2896115612       -1.0615653597
 C        -5.8780340189        5.5961918077       -2.3363924275
 O        -6.7069886350        6.1479788006       -3.0145171043
 C        -5.2424623427        4.2221222905       -2.8946049607
 C        -6.3843173029        3.4073779950       -3.6652041572
 O        -7.5491880886        3.7760190865       -3.5691811871
 C        -6.0100015275        2.1135555342       -4.3791628651
 C        -7.1588425009        1.1279644868       -4.3121436404
 C        -6.9912344115        0.0168614748       -3.2161416091
 O        -5.9926051031       -0.7114789887       -3.1345075340
 C        -8.2810391897       -0.2151944341       -2.3464556173
 C        -8.9516802271        1.1537290655       -2.0308952767
 O        -8.2988962586        2.0232058709       -1.4318854105
 C       -10.3923125736        1.5761326896       -2.4367150341
 C        -9.1918311293       -1.1188351057       -3.1533971323
 C        -7.8048875340       -0.8748291296       -1.0077735986
 C        -4.1094694291        4.5334552679       -3.9153542963
 C        -4.7930649309        3.2641305231       -1.7417857682
 C        -7.4166742696        9.6361374071        1.3375742917
 C        -8.9688548799        7.7010900151        2.0394589461
 C       -12.4277707067        4.9804944309       -4.1138695568
 C       -12.9654904715        7.4693980297       -3.4304637099
 C       -11.7346628209        4.8742644313        3.1231611869
 C        -9.6557898554        3.6911732781        2.2768111214
 C       -14.1819234102       -1.8398906892        4.9080566770
 C       -16.1275980655       -0.2408209685        5.1077097416
 H       -16.2318385286       -1.3753723700        7.8273403029
 H       -15.9909417267        0.2978020093        8.0873574668
 H       -15.1247031044       -0.7962266500        8.9892631566
 H       -12.3055786073        0.0321975815        3.4267010030
 H       -11.8079724365        0.1558281786        5.0074337095
 H       -10.6758032025        1.8161808911        4.1946844465
 H       -12.0350091867        2.7845545143        4.8271621106
 H       -13.4730949325        4.8091306440        0.8067842130
 H       -13.3741361662        3.0274449559        0.4615670019
 H       -14.0588145739        3.9284400822       -1.6561602306
 H       -12.3090298430        3.6710522254       -1.8132056717
 H       -10.4125749074        8.5194544539       -2.8448871938
 H        -8.9488390116        7.4394860707       -2.5068113872
 H        -9.8671896038        6.7255222447       -0.4368865323
 H       -11.1573024766        7.9346306883       -0.5318859222
 H        -5.2835285185        7.9864216970        0.2955785644
 H        -6.0479338548        8.4123830681       -1.2393422190
 H        -5.0538587371        5.4994000060       -0.3744215556
 H        -4.1927568619        6.5990500674       -1.3480052038
 H        -5.1668013891        1.6468610241       -3.9262483413
 H        -5.6685910346        2.3147250249       -5.3601123014
 H        -7.3044586835        0.6439329791       -5.2683544435
 H        -8.0474174440        1.7141334831       -4.1053198170
 H       -11.0675372957        0.7991374192       -1.9148724484
 H       -10.6787131714        1.6632239474       -3.4987143020
 H       -10.6631294954        2.5014829307       -1.8930375770
 H        -9.3706561949       -0.7258331324       -4.1580515890
 H       -10.1723247653       -1.2490420289       -2.6766459789
 H        -8.7131776690       -2.1149899230       -3.2822475014
 H        -7.1502308799       -1.7140694188       -1.2435914453
 H        -8.7610184944       -1.2196407255       -0.4636700303
 H        -7.4028494842       -0.0835833281       -0.3716532742
 H        -3.8528161490        3.7085185043       -4.4957349038
 H        -3.1891504288        4.7422114856       -3.4930771891
 H        -4.5077268196        5.3991192924       -4.5368009623
 H        -5.3148503452        3.3974773376       -0.8900224291
 H        -3.6220315130        3.2071461311       -1.7068660556
 H        -5.0667170529        2.2568760387       -2.0392358074
 H        -8.0575123914       10.2433396250        1.9722015039
 H        -7.0669347953       10.2119455226        0.5164934572
 H        -6.6158438067        9.4602670787        1.9631655303
 H        -9.6591299784        7.0462344863        1.6349892467
 H        -9.4496211975        8.4620792890        2.5910236453
 H        -8.2364032623        7.2234774987        2.7044862816
 H       -12.0030829133        5.2282331382       -5.0332484482
 H       -13.4584870510        4.7966781718       -4.4585758914
 H       -11.9000739377        4.0538985327       -3.7671782800
 H       -12.6266365089        7.9185906212       -4.3652224865
 H       -13.0361593273        8.1802520732       -2.6615230915
 H       -14.0355004208        7.2537644392       -3.5271190493
 H       -11.1763937254        4.6072909072        3.9929243590
 H       -12.8186358946        4.8862117581        3.2771676053
 H       -11.3711520875        5.8210707570        2.7734032029
 H        -9.2944795586        3.0064877208        1.5043851471
 H        -9.4675235744        3.1464804179        3.1757700145
 H        -9.2132766470        4.6915661100        2.2592721695
 H       -14.1976562097       -1.9120492637        3.8426397611
 H       -14.8249982844       -2.5962233124        5.2565337585
 H       -13.2069912089       -2.0058988989        5.2509264726
 H       -16.6773303392       -1.1295518110        5.5289365673
 H       -16.1932755900       -0.2188350589        4.0216160784
 H       -16.4673975454        0.6879847572        5.5278552648
 Na       -8.3731529593        4.4380076145       -1.6085936156
