117

 C       -15.3922507309       -0.3130419072        8.0516835625
 C       -14.3336439584       -0.4461582283        6.9784746629
 O       -13.1817081962       -0.4356266278        7.2711984711
 C       -14.8151420937       -0.4010113648        5.4885678153
 C       -14.0136710296        0.8642403309        4.8277549142
 O       -14.6077959306        1.9032040553        4.6849378992
 C       -12.5451690606        0.7072657462        4.4515639586
 C       -11.8600307276        2.0824448652        4.1629576688
 C       -12.0111062861        2.3840207303        2.6842827004
 O       -12.6992292142        1.7067138529        1.9826010851
 C       -11.2895507190        3.6509510061        2.0772653528
 C       -11.5667496968        3.9414431892        0.5404438568
 O       -10.6745570998        4.2703201184       -0.2653306730
 C       -13.0079303336        3.9459320554        0.1109421265
 C       -13.2723427425        4.1753298590       -1.3325768155
 C       -12.9810937884        5.7063572302       -1.6668795177
 O       -13.1765675954        6.5922838923       -0.8652129933
 C       -12.4273292072        6.0352930066       -3.0629745441
 C       -10.9316288311        6.2575578624       -2.7907423774
 O       -10.1398527108        5.3647893570       -3.1138706451
 C       -10.3475205202        7.5810866902       -2.2708111030
 C       -10.1886710508        7.7193336645       -0.7589482588
 C        -9.0652430088        8.6345609627       -0.4345649286
 O        -9.0692757936        9.7197057775       -0.9094460368
 C        -7.8863562961        8.2649553296        0.7323402592
 C        -7.1697986085        7.1268559417        0.0601101953
 O        -7.5103128097        5.9336633973        0.2361735226
 C        -6.0204188093        7.4869412442       -0.8512852201
 C        -5.1687421115        6.3000128722       -1.2185915331
 C        -5.7613403511        5.5752721482       -2.4603868052
 O        -6.3723293132        6.2956925565       -3.2482244730
 C        -5.2424733225        4.1844537954       -2.7707020977
 C        -6.4016886785        3.3054757971       -3.5498507144
 O        -7.5408046022        3.6854263340       -3.4837668885
 C        -5.9152582773        2.0805270518       -4.2796366142
 C        -6.9385387786        0.9454288300       -4.3980616462
 C        -6.9663076261       -0.0099501854       -3.1904199921
 O        -6.0153211566       -0.7682049015       -2.9735564656
 C        -8.2630300541       -0.1413095067       -2.2554887270
 C        -8.8137324978        1.3659070059       -2.1345854068
 O        -8.0826221527        2.1784219139       -1.5442899292
 C       -10.2519395287        1.6358604422       -2.5155550808
 C        -9.2939601238       -1.0667398185       -2.9320833654
 C        -7.8593046133       -0.7268544942       -0.9325072516
 C        -4.0487071134        4.3349516536       -3.7911476166
 C        -4.7171575055        3.5013263548       -1.4747432691
 C        -7.0437218328        9.5181571863        1.0296779279
 C        -8.5866052971        7.8184043664        2.0539054083
 C       -12.6327994866        4.8623451130       -4.1071786723
 C       -13.0351819446        7.3693146211       -3.5883746311
 C       -11.7485682022        4.9448807416        2.7717960802
 C        -9.6979187478        3.6245729735        2.3167784491
 C       -14.4570354947       -1.8351879822        4.8299025726
 C       -16.3213506338       -0.2391666381        5.4037714118
 H       -16.0630600159       -1.2513301127        8.1348063044
 H       -16.0301814904        0.5546783054        7.9751694676
 H       -15.0119832985       -0.1490323244        9.0702805940
 H       -12.3438929841        0.1451399836        3.5334769075
 H       -11.9658689028        0.1864051054        5.1766689819
 H       -10.7482453243        2.0152819333        4.3536231524
 H       -12.2733618953        2.8437939106        4.7666624328
 H       -13.4325167225        4.6962502898        0.7766724409
 H       -13.3636328628        2.9742376858        0.5246504457
 H       -14.3947926487        4.0549061369       -1.5344130574
 H       -12.5952765796        3.6076387929       -1.9527206183
 H       -10.7633381790        8.4555201405       -2.7621777095
 H        -9.3491875935        7.4215078734       -2.6807777174
 H       -10.0685947997        6.7881191958       -0.1559543447
 H       -11.0594463340        8.2557124776       -0.2834574612
 H        -5.4947291758        8.3052966815       -0.4411564164
 H        -6.5813179976        7.8943388197       -1.8203228450
 H        -4.9716056586        5.6438665477       -0.3521782198
 H        -4.1909824337        6.6492095617       -1.5058220008
 H        -5.0147713390        1.7566421959       -3.7251395039
 H        -5.5336014587        2.3451084077       -5.3046186587
 H        -6.5934370633        0.2627782043       -5.2349597494
 H        -7.8900750055        1.4118243285       -4.6814334777
 H       -10.9902319647        1.0903317954       -1.9019938223
 H       -10.4105156901        1.2563134266       -3.5226791711
 H       -10.4199415600        2.6603150866       -2.5498137230
 H        -9.6432638276       -0.7700022578       -3.8521594709
 H       -10.2003688350       -1.1110644092       -2.3274587175
 H        -8.8663524978       -2.0904423223       -3.0806415085
 H        -7.3214055058       -1.5878417206       -1.0965149537
 H        -8.7351892483       -0.8935578738       -0.2487475576
 H        -7.2770767492        0.0216660636       -0.5067026467
 H        -3.3703252358        3.5136467959       -3.8248011524
 H        -3.3575176514        5.1710017757       -3.5585178806
 H        -4.4798517145        4.6216913918       -4.8378825344
 H        -5.5392632171        3.1974870761       -0.9174784166
 H        -4.0438018888        4.2634765019       -0.9516650699
 H        -4.1060438800        2.6471480299       -1.7147105354
 H        -7.6274760153       10.3778893828        1.5151816060
 H        -6.6998462093        9.9842111007        0.0977531045
 H        -6.2456758773        9.3705616912        1.7841745417
 H        -9.0014304943        6.7979564865        1.9652179332
 H        -9.3506182995        8.5788853661        2.3501250760
 H        -7.7593538007        7.7218971801        2.8352304039
 H       -12.8046970219        5.2747457342       -5.0908011365
 H       -13.5638762727        4.2481653287       -3.8949707575
 H       -11.7562094626        4.2335228156       -4.2147320426
 H       -12.2690430590        7.7558950196       -4.2735067507
 H       -13.1047841690        8.2219998386       -2.8723256851
 H       -13.9585632796        7.3006583779       -4.1385174764
 H       -11.3907066407        4.9112612278        3.7966438551
 H       -12.8298849982        5.0573580688        2.7279919171
 H       -11.2307662543        5.7319373827        2.1589362311
 H        -9.3772474678        2.5643987307        2.1291262401
 H        -9.4467250874        3.9012271589        3.3221944450
 H        -9.2147924518        4.3124969485        1.6275924454
 H       -14.9301062364       -1.9122635590        3.8225921735
 H       -14.9773490988       -2.6217360503        5.4370053945
 H       -13.3483374956       -2.0590555370        4.7271622985
 H       -16.7543300832       -1.0974129455        5.8973646982
 H       -16.5514764098       -0.3609639211        4.3514058832
 H       -16.6465257996        0.7016060428        5.7516607946
 Na       -8.5345393851        4.5609100990       -1.3795505996
