117

 C       -15.2613613471        0.1870025482        8.1950877801
 C       -14.3538872240       -0.2265911437        7.0899143473
 O       -13.2553179387       -0.7661896966        7.2793119942
 C       -14.8533616855       -0.1741560080        5.5936329693
 C       -14.1519778336        1.0626453920        4.9956488907
 O       -14.7900696448        2.0731723863        4.7015301559
 C       -12.7014310218        0.9496368350        4.7130008881
 C       -12.1369261664        2.3352021634        4.2445952692
 C       -12.1326184917        2.4505636274        2.7122600882
 O       -12.7634160752        1.6362707849        2.0379513311
 C       -11.3836011024        3.5972500114        2.0127172238
 C       -11.7139768551        3.7080297548        0.4554048311
 O       -10.8796402088        3.6772722438       -0.4019231010
 C       -13.2619244676        4.0466197646        0.0937624816
 C       -13.3849481377        4.2317222177       -1.3849559654
 C       -13.1074213600        5.7127864178       -1.6791136271
 O       -13.2871883584        6.5509500630       -0.8430661439
 C       -12.5891037128        6.2525330438       -3.1336405934
 C       -11.1032966278        6.2687372703       -2.7661704074
 O       -10.5074902682        5.2097747039       -2.5816983367
 C       -10.4000728007        7.5786512982       -2.3439991522
 C        -9.9718810008        7.5332063846       -0.9435383813
 C        -8.8462963743        8.5793125917       -0.7060730586
 O        -8.6981657060        9.5373840009       -1.4142978881
 C        -7.8763306646        8.1836070926        0.4152210600
 C        -7.0290769530        7.1523848536       -0.2378387729
 O        -7.3507605844        5.9677678267       -0.0831283901
 C        -5.7968636221        7.5200919314       -1.1560834869
 C        -4.8636221039        6.2967614344       -1.4545515014
 C        -5.4862403647        5.3415514418       -2.4594168476
 O        -6.4026031431        5.7410172183       -3.1169118057
 C        -4.9549667581        3.8525122688       -2.8786370746
 C        -6.0981462046        3.0953956084       -3.5140970225
 O        -7.2676674124        3.2916954375       -3.1413909574
 C        -5.8795103107        1.9752988950       -4.5413484369
 C        -6.9294904590        0.7873093348       -4.3470635089
 C        -6.8432982713        0.1334451316       -2.9683932211
 O        -5.7883771621       -0.2964194212       -2.6042945997
 C        -8.1561003778        0.0786535608       -2.0964807851
 C        -8.7792947192        1.4766075356       -1.7838109657
 O        -8.4501501274        2.1288399545       -0.8187947393
 C        -9.8565126932        2.0609989000       -2.7421795826
 C        -9.2665755458       -0.7740526786       -2.7661587463
 C        -7.7129735470       -0.6169840739       -0.7747606854
 C        -3.7208831623        4.0347288692       -3.7279368081
 C        -4.6111878932        3.1628090995       -1.4848499975
 C        -7.0683366764        9.4545297718        0.7622882043
 C        -8.7124078906        7.6961518399        1.6660307123
 C       -12.8004052690        5.2301358148       -4.2313084076
 C       -13.2711795340        7.5614370406       -3.4874064281
 C       -11.8838592205        4.9427761388        2.7511597648
 C        -9.8393386081        3.3852461130        2.1288298757
 C       -14.5186013562       -1.4284456060        4.7986279828
 C       -16.4669933442        0.0837210918        5.6214818662
 H       -16.1883022827       -0.3721469573        8.1792359150
 H       -15.5827917439        1.2891488908        8.2002063640
 H       -14.8162453676        0.1191564074        9.2271039643
 H       -12.4837520099        0.2045101929        3.9630647575
 H       -12.1520349774        0.6517892143        5.5454124110
 H       -11.1930163315        2.5661467969        4.6689933327
 H       -12.9943301848        2.9916695713        4.6127145197
 H       -13.5213171429        4.8878452677        0.7305227642
 H       -13.9599134966        3.2759599958        0.4860172469
 H       -14.4363410426        4.0669983151       -1.6179045308
 H       -12.7221236304        3.6345469834       -2.0582962600
 H       -10.9310779636        8.5041225090       -2.6099035280
 H        -9.5805035165        7.7479161209       -2.9920260013
 H        -9.6204600825        6.4884253625       -0.6802447052
 H       -10.7498928016        7.7216099450       -0.1929183707
 H        -5.1807213478        8.1729398960       -0.3975581172
 H        -6.0965401657        8.1399369606       -2.0472003672
 H        -4.5896136704        5.8214274225       -0.5503530958
 H        -3.9422355838        6.7010893162       -1.9458676078
 H        -4.8413833944        1.5682077458       -4.5390124435
 H        -6.1076915769        2.4127497851       -5.5340546800
 H        -6.7158956126        0.0189465856       -5.1029968870
 H        -7.9650485316        1.1937435249       -4.5538340764
 H       -10.7756103919        1.5427048334       -2.6262580043
 H        -9.7279456739        2.0320969932       -3.7770179452
 H        -9.9035324671        3.1270514307       -2.4933803427
 H        -9.7309241325       -0.3010471191       -3.7013957046
 H       -10.0757071665       -0.9540986683       -2.0894554664
 H        -8.9293621336       -1.7285761333       -3.0261562017
 H        -7.0086571515       -1.4406269655       -0.9720921495
 H        -8.5472686809       -1.0132605928       -0.3900286177
 H        -7.2047925745        0.0372788161       -0.0832949777
 H        -3.3234717186        3.0143100288       -4.0605540152
 H        -3.0020420919        4.6998739489       -3.2322157222
 H        -3.8496894707        4.4684237888       -4.6779447658
 H        -5.5753054835        2.9097261914       -0.8984120061
 H        -4.1024958138        3.7996087879       -0.8966309750
 H        -4.0097499859        2.3181570009       -1.7740519921
 H        -7.8066304309       10.2132228501        1.0702752977
 H        -6.5995795927        9.9986037903       -0.1313159123
 H        -6.2453087768        9.3624567945        1.5088451688
 H        -9.2440280481        6.7422730328        1.4489980948
 H        -9.4278093215        8.4888414644        1.9649218269
 H        -8.0409651044        7.4075541252        2.5004208126
 H       -12.4451928585        5.6656224027       -5.1649318058
 H       -13.8035037879        4.9310531937       -4.2299246145
 H       -12.2386313901        4.2812525729       -4.0255180632
 H       -12.6659558638        8.0807171322       -4.2258147224
 H       -13.3221820306        8.2670133272       -2.6632419542
 H       -14.2000886487        7.4244826461       -4.0579012324
 H       -11.3689226876        5.0454983854        3.7185479255
 H       -12.9557323494        4.8020545485        3.0179352239
 H       -11.7670333476        5.7853703066        2.1248257538
 H        -9.4956451971        2.5621965941        1.5538531248
 H        -9.5704077612        3.3719579774        3.1987833541
 H        -9.2910942628        4.2571087222        1.7054165850
 H       -14.7764479528       -1.2129536166        3.7232259793
 H       -14.9446256236       -2.3573382766        5.2221559211
 H       -13.4465419297       -1.5778377541        4.7799420531
 H       -17.0792195964       -0.7596076081        5.9987767582
 H       -16.7890526458        0.2827859497        4.6184501380
 H       -16.6512787749        1.0311065490        6.1553639667
 Na       -8.5025268897        4.3943151438       -1.5094438875
