117

 C       -15.2141783125        0.2677453937        8.2357402473
 C       -14.4370213635       -0.3926277208        7.1335468924
 O       -13.3189504857       -0.7488667064        7.2943211167
 C       -14.9447652388       -0.2071268226        5.6259689527
 C       -14.2034586314        1.0729342243        5.0207948243
 O       -14.8704106725        2.0773196366        4.8118176875
 C       -12.6876647671        1.0446452423        4.7845731068
 C       -12.0532685075        2.3950303498        4.2429076092
 C       -12.0867686193        2.4467713156        2.6979521159
 O       -12.7131052594        1.6907795802        2.0125386630
 C       -11.3740332827        3.6481604276        1.9677309052
 C       -11.7289346760        3.7176317147        0.4438825846
 O       -10.8914527463        3.7105102575       -0.4210856900
 C       -13.2165012912        3.9178084946        0.0362814762
 C       -13.5018337438        4.2922830217       -1.4146294566
 C       -13.2785555747        5.7806687559       -1.6396150727
 O       -13.4447292567        6.6378660273       -0.7956258790
 C       -12.6063798982        6.2053531484       -3.0627243755
 C       -11.1039325354        6.2387635215       -2.7804969250
 O       -10.4412055198        5.2263943752       -2.6866061646
 C       -10.3745511315        7.5968795383       -2.5415290602
 C       -10.1114049375        7.7489277069       -1.0269786105
 C        -8.8520421398        8.5962267162       -0.7596713969
 O        -8.6248720987        9.5573813412       -1.4657637964
 C        -7.8112114826        8.1695923589        0.3318868629
 C        -6.9364366932        7.0294135138       -0.1824139265
 O        -7.1692387598        5.8346548851       -0.2145697254
 C        -5.6528845367        7.5049966184       -1.0374708214
 C        -4.8291710683        6.2476345753       -1.4556461330
 C        -5.5999363872        5.3652406607       -2.4619439286
 O        -6.5820941371        5.6904138115       -3.1375242297
 C        -4.9476462317        3.8726557897       -2.7434690801
 C        -6.1614163935        3.0517199433       -3.3716625134
 O        -7.3084961140        3.2742913596       -3.0484332731
 C        -5.8799198416        1.9891744934       -4.4555301563
 C        -6.9042188503        0.8327035589       -4.3804151392
 C        -6.8188981299        0.1896894585       -2.9313129076
 O        -5.7364028360       -0.1471988401       -2.4174471022
 C        -8.1721751754        0.0345135109       -2.0652043467
 C        -8.7631802578        1.4647911953       -1.7975717840
 O        -8.4048827268        2.0726246947       -0.7994281402
 C        -9.7925133911        1.9589312324       -2.7827284778
 C        -9.1854998202       -0.8101148640       -2.8226434796
 C        -7.7002041349       -0.5500824299       -0.7658896676
 C        -3.7634127574        3.9769237444       -3.7169106621
 C        -4.5597720864        2.9844567956       -1.5175461692
 C        -6.9718632220        9.4804920281        0.7406599494
 C        -8.5452825052        7.6529585609        1.5540412248
 C       -12.9486724479        5.1533963575       -4.2118366244
 C       -13.2559251122        7.5217741497       -3.4651982421
 C       -11.8308595337        5.0143967728        2.5902620421
 C        -9.8452723633        3.4676246717        2.0853648083
 C       -14.6721074201       -1.5286919496        4.8696805580
 C       -16.4925926532        0.1703428422        5.6078024821
 H       -16.2657876306        0.0186633515        8.4422030963
 H       -15.2698408879        1.3692549528        7.9739251019
 H       -14.6882109833        0.3091226088        9.1713210433
 H       -12.4370207672        0.3182032672        4.0758001264
 H       -12.0864668186        0.7424367530        5.6420211503
 H       -11.0336695156        2.4804717355        4.6146487996
 H       -12.7416094846        3.2400022758        4.5971442024
 H       -13.6211981024        4.6097912996        0.8306161011
 H       -13.7385603475        2.9885470764        0.3545884519
 H       -14.5053555569        4.0949314132       -1.5871725356
 H       -12.8957553086        3.8257361730       -2.1869162634
 H       -11.0024412040        8.4376405130       -2.8434997308
 H        -9.5811873072        7.8309652991       -3.2374378223
 H        -9.9530941715        6.7913913433       -0.5597576088
 H       -10.9989960576        8.1501532128       -0.5130242428
 H        -5.0046901850        8.2771637301       -0.4821082952
 H        -6.0393954810        7.9483350325       -1.9325562952
 H        -4.6374444666        5.5682112793       -0.6279556777
 H        -3.9048716384        6.5935597250       -1.9037723665
 H        -4.8899953684        1.5848494790       -4.2806227430
 H        -5.9342073630        2.4217605747       -5.4181885857
 H        -6.6182443313        0.0722654572       -5.1165754359
 H        -7.9083639883        1.2279767142       -4.6673945853
 H       -10.5723060595        1.2186729824       -2.6300295115
 H        -9.6209949382        1.8688155330       -3.8949600346
 H       -10.0978129362        2.9568310209       -2.6521071079
 H        -9.4117997871       -0.3753023697       -3.7935099422
 H       -10.1189187794       -0.9512646648       -2.2841730119
 H        -8.8816018523       -1.8373458357       -2.9583738892
 H        -6.9801229703       -1.3073817017       -0.8073829054
 H        -8.5993987591       -0.9176520081       -0.2352999208
 H        -7.2439486465        0.2423204782       -0.1992489154
 H        -3.3196488855        2.9804889893       -3.8488918614
 H        -3.0419498301        4.7709172073       -3.4814278045
 H        -4.0184163165        4.1290505905       -4.7359299438
 H        -5.5362928608        2.7320796420       -1.0499634684
 H        -3.9847072837        3.4411106438       -0.7194261910
 H        -4.0500023597        2.1559256858       -1.9687897284
 H        -7.5924502116       10.3091164946        1.1063193061
 H        -6.4153776407        9.9259370301       -0.0942128724
 H        -6.1351164031        9.2214946374        1.4588297708
 H        -8.8416180836        6.5743999528        1.2835705562
 H        -9.4598841030        8.2603211167        1.8430625109
 H        -7.8714447297        7.5088077181        2.4009962344
 H       -12.8215226630        5.8357682450       -5.1153505447
 H       -13.9925307645        4.8088166889       -4.0715508024
 H       -12.3688032346        4.2689727703       -4.3416047076
 H       -12.5955918471        8.1098240884       -4.0351641207
 H       -13.5096627887        8.1846213077       -2.5492866073
 H       -14.0690478882        7.4221234492       -4.1266882347
 H       -11.2764457252        5.2039179544        3.5432518448
 H       -12.8756782706        4.8754424305        2.8932696880
 H       -11.7585666862        5.8606836350        1.8712429052
 H        -9.4764982317        2.5661470497        1.5990990083
 H        -9.6226069595        3.4934041459        3.1689953288
 H        -9.2557468425        4.2615805677        1.6346105261
 H       -15.0860325893       -1.4720617004        3.8491094976
 H       -14.9638864329       -2.4346466904        5.4541118296
 H       -13.5540329753       -1.6180622093        4.7047237034
 H       -17.1288814524       -0.5684036062        5.9818139125
 H       -16.7328427109        0.3121553676        4.5736570346
 H       -16.6720938578        1.1285549985        6.0869232961
 Na       -8.4803006027        4.4097967653       -1.4854733771
