117

 C       -15.1663722922        0.3948440234        8.2791443972
 C       -14.3932506718       -0.2260977263        7.1044530757
 O       -13.3759030249       -0.8473999618        7.3016153993
 C       -15.0229186149       -0.1598374375        5.6397729935
 C       -14.2555169916        1.0886728323        5.0269584875
 O       -14.8677222921        2.1278050046        4.9112348396
 C       -12.7037959840        1.0627428955        4.8221142188
 C       -12.0898905445        2.3775980309        4.1738066475
 C       -12.1853053165        2.4983329224        2.6663784996
 O       -12.6756187536        1.6155219202        2.0036532735
 C       -11.3804929502        3.7497459498        1.9502095403
 C       -11.7546529140        3.7900120671        0.4150210203
 O       -10.8555178673        3.7722134275       -0.4666700183
 C       -13.2750010452        3.7304990198        0.0748517497
 C       -13.5494987913        4.2735572280       -1.3290676428
 C       -13.2804495017        5.8208888411       -1.6416680997
 O       -13.5823511606        6.6637010466       -0.8453619933
 C       -12.7188889720        6.2444583875       -3.0740498436
 C       -11.1246524044        6.2520512107       -2.8427455399
 O       -10.4156417875        5.2379093957       -2.8302239387
 C       -10.4001321850        7.5746766525       -2.6213135670
 C       -10.1789480571        7.9181244402       -1.0834646349
 C        -8.7737387948        8.6264310437       -0.9137012496
 O        -8.5294998248        9.6204951310       -1.5444560083
 C        -7.7150273833        8.0889031215        0.2944197662
 C        -6.8088956143        7.0247284243       -0.3611395661
 O        -7.1285398000        5.8759810739       -0.1836662981
 C        -5.4738563358        7.3827240808       -1.0319142558
 C        -4.7742688523        6.1369161833       -1.5454691880
 C        -5.6071164599        5.2475222202       -2.4724350599
 O        -6.5911234523        5.7455711697       -2.9896385567
 C        -5.0881817148        3.8076317677       -2.7151473425
 C        -6.1970621568        3.0308648180       -3.3996329148
 O        -7.3341378730        3.1538320031       -3.0422927230
 C        -5.7989850625        1.9607930632       -4.3660588395
 C        -6.7980699453        0.8270587016       -4.3111108290
 C        -6.8153583127        0.2828134019       -2.9013619080
 O        -5.7467558009        0.0831166445       -2.3863659137
 C        -8.1248022766        0.0122492327       -2.0328829852
 C        -8.7879411434        1.3935055645       -1.8383743640
 O        -8.3647615898        2.1034598174       -0.9111081485
 C        -9.8459294840        1.8634626319       -2.7381646243
 C        -8.9986947521       -0.9619217552       -2.8787541820
 C        -7.7836287251       -0.6070331477       -0.6166375952
 C        -3.8623457627        3.9934062062       -3.6706150237
 C        -4.5862671936        2.9693281648       -1.5028254206
 C        -6.9717718531        9.3584796469        0.7174681909
 C        -8.4282753992        7.5663094632        1.6049145341
 C       -13.0507342892        5.0809694652       -4.1065220432
 C       -13.2634621022        7.6009335003       -3.4365968664
 C       -11.7394883806        5.1035394884        2.4903907871
 C        -9.8080916447        3.5894195678        2.0686460930
 C       -14.8202879947       -1.5091629234        4.9471630538
 C       -16.5007261496        0.1248614288        5.5714979035
 H       -16.1670421282       -0.0744193921        8.3098050792
 H       -15.3878445749        1.4054936650        8.3410780933
 H       -14.6978933222        0.1455424842        9.2115985728
 H       -12.2776249052        0.2307569876        4.2412646258
 H       -12.1024413328        0.9586238306        5.7730306878
 H       -10.9704901383        2.2082589096        4.3522547175
 H       -12.4515489270        3.2538639400        4.6587056013
 H       -13.7397208123        4.1514496191        0.9763852591
 H       -13.5287540138        2.6815717917        0.2305328608
 H       -14.5914388576        4.1356990612       -1.6247464775
 H       -12.9785864891        3.7679204506       -2.0463898204
 H       -10.7580958670        8.3994553821       -3.2140100021
 H        -9.4122413522        7.5245471984       -3.1587805904
 H       -10.1584319708        7.0449895530       -0.4931401185
 H       -10.9630199494        8.5387508810       -0.6574260367
 H        -4.8757176529        7.8336251986       -0.3532653467
 H        -5.6350210883        8.0820862026       -1.8425377437
 H        -4.4911678127        5.4670730341       -0.6906302739
 H        -3.9146779775        6.5739161104       -2.0197829129
 H        -4.8124021491        1.6413397230       -4.0904386169
 H        -5.8333669185        2.2948331346       -5.3797534101
 H        -6.4539511514        0.0068716731       -4.9608582224
 H        -7.7029308369        1.2117011457       -4.7043457903
 H       -10.7096007079        1.1547696776       -2.7838527827
 H        -9.4642117961        1.8409247650       -3.7932205222
 H       -10.0947118606        2.9155734107       -2.6120580019
 H        -9.0466307381       -0.7137999136       -3.8791199823
 H       -10.0173285247       -1.0436090611       -2.4547862769
 H        -8.7112320058       -2.0432954539       -2.7621714789
 H        -7.2384455344       -1.5402289340       -0.6230087596
 H        -8.7766346933       -0.7511832466       -0.0387331014
 H        -7.1232505304        0.0739633601       -0.0708615885
 H        -3.3100512596        3.1510980645       -3.7870902961
 H        -3.2585357555        4.8230176427       -3.3663078780
 H        -4.1279513502        4.1706760012       -4.7560441089
 H        -5.2985357585        2.9522224725       -0.7877144559
 H        -3.7101463427        3.6067285335       -1.0069097490
 H        -4.2205189562        2.0239386695       -1.9044586849
 H        -7.5068595344       10.1700612800        1.2251022540
 H        -6.5215657307        9.7603219706       -0.1503809426
 H        -6.0866328749        9.0781635618        1.2415403806
 H        -8.6695788962        6.5110095198        1.4349845164
 H        -9.3561006653        8.1309797215        1.7805646251
 H        -7.7910326304        7.5996833673        2.5213979570
 H       -12.8948560310        5.5611015249       -5.0601621304
 H       -14.0724579636        4.5823358787       -3.9790562609
 H       -12.3489832276        4.2597682007       -4.0288130425
 H       -12.6991546123        8.1050072789       -4.2549401049
 H       -13.2839613168        8.2421958422       -2.5770489238
 H       -14.2784836911        7.5440627706       -3.8209909499
 H       -11.2662236375        5.2547929892        3.4683046286
 H       -12.8176466758        5.1684172571        2.6409324077
 H       -11.4110840641        5.9074474159        1.7443318015
 H        -9.5549273045        2.6046735605        1.5790664470
 H        -9.4752321705        3.6098115926        3.1006439215
 H        -9.2208505151        4.3034975046        1.5204277312
 H       -15.2785188567       -1.5066657241        3.9717713346
 H       -15.2023188338       -2.3179411353        5.5859238795
 H       -13.7333886327       -1.7327142684        4.7979358474
 H       -17.0772067218       -0.6516024332        6.0373506215
 H       -16.7650958373        0.1415093057        4.5209127850
 H       -16.7776491056        1.0352094358        6.0170238958
 Na       -8.5586502565        4.4507111877       -1.3790863645
