117

 C       -14.9834461115        1.0296542213        8.2617363081
 C       -14.5038735552        0.0857637856        7.1314715244
 O       -13.4704936582       -0.5811956730        7.2960592909
 C       -15.2086658240        0.1332934441        5.6655813510
 C       -14.3683699956        1.3464004458        5.1464796085
 O       -14.7179145399        2.4943426831        5.3877759900
 C       -13.0224521830        1.1372612732        4.4340489471
 C       -12.3133053833        2.4546535849        4.1068706892
 C       -12.0244795201        2.5566255496        2.5952657653
 O       -12.2662891364        1.6201300762        1.8255653557
 C       -11.2811791350        3.8551975517        1.9993772683
 C       -11.6533792885        4.1348899574        0.4505812334
 O       -10.8184923771        4.7343720217       -0.2958399830
 C       -12.9912039930        3.7403398026       -0.1113447849
 C       -13.2045011879        4.2838895834       -1.5079485542
 C       -13.0493662304        5.8318469257       -1.6721142779
 O       -13.2701491717        6.5014486466       -0.7151589209
 C       -12.6086408789        6.4456324540       -3.0787648608
 C       -11.0423418762        6.1112679203       -3.0080253347
 O       -10.7586028471        4.9101295223       -3.1140411703
 C       -10.1060769868        7.2276385475       -2.7424918218
 C        -9.7662522072        7.2974565044       -1.2445647498
 C        -8.5228406811        8.2209209511       -1.0464371057
 O        -7.9555490747        8.6732457262       -2.0135241815
 C        -7.8062552387        8.2210679836        0.3033984869
 C        -6.7975160086        6.9669201231       -0.1795472835
 O        -7.1554865203        5.8542602149       -0.0011859579
 C        -5.5286154739        7.3176557980       -0.9363382640
 C        -4.8444194446        6.1520770603       -1.5808271157
 C        -5.8081349670        5.3402345550       -2.4911677461
 O        -6.9012710647        5.7064953002       -2.8955821181
 C        -5.2069734584        3.9170817235       -2.8912685689
 C        -6.1833619894        2.9064335580       -3.5060278405
 O        -7.3616633635        3.0978560289       -3.6794858143
 C        -5.5826479967        1.5598688669       -3.9987995429
 C        -6.7098112653        0.5077054801       -3.8390498078
 C        -6.7648291792        0.1159220315       -2.2826503121
 O        -5.7814996555        0.2259861581       -1.6414952924
 C        -8.1706368129       -0.3520205801       -1.7428123635
 C        -9.0676816827        0.9005560730       -1.8068440770
 O        -8.6132376017        1.9205313269       -1.3285390581
 C       -10.3796417522        0.8122138731       -2.4605257069
 C        -8.6488317945       -1.4875092774       -2.6679211620
 C        -8.0482987272       -0.7801895743       -0.2695220624
 C        -4.0444234598        4.2075166351       -3.9289904204
 C        -4.6848863940        3.2468235836       -1.5644164372
 C        -7.0671072014        9.6124018038        0.5500930738
 C        -8.7734240135        7.8606480832        1.4622027744
 C       -13.2666250853        5.5701002959       -4.2301928643
 C       -12.9948078470        7.9089688712       -3.2527848926
 C       -11.7282457171        5.1223937484        2.7437967568
 C        -9.6876451419        3.7050643878        2.0044967486
 C       -15.0765241012       -1.2432729892        4.9327104841
 C       -16.7552602190        0.5466040175        5.8089375410
 H       -15.9865691426        0.8942416548        8.7266679291
 H       -15.0843607098        2.0064083493        7.9152345177
 H       -14.3106526467        0.9466972174        9.1233510835
 H       -13.1711393371        0.5722266457        3.5473734982
 H       -12.4203226815        0.4334535353        5.0506452774
 H       -11.3451068783        2.3698184506        4.5685606630
 H       -12.8535073132        3.3003211576        4.5754703788
 H       -13.6806538031        4.0062849408        0.7395093728
 H       -12.9441461543        2.6536783202       -0.1476972838
 H       -14.2181389795        3.9786709884       -1.9097761765
 H       -12.4902455085        3.8446501592       -2.2541738541
 H       -10.6670506138        8.0588257037       -3.0686957134
 H        -9.1718085951        7.0074141742       -3.2667076279
 H        -9.6542304551        6.2764575507       -0.8508966530
 H       -10.6566794419        7.7661817834       -0.7066092441
 H        -4.9687723853        7.7993694504       -0.1143899893
 H        -5.7830876064        8.1831212362       -1.6819498990
 H        -4.4668459050        5.4425189004       -0.8116212727
 H        -4.0059074300        6.5327836989       -2.1584510407
 H        -4.6552060103        1.2261811959       -3.4322669800
 H        -5.2373807360        1.5652087826       -5.0672574583
 H        -6.3583832984       -0.3938211701       -4.3732831429
 H        -7.6105972212        0.8144907337       -4.3766805006
 H       -10.8754206911       -0.0508587121       -2.0137059944
 H       -10.3458567159        0.6742944018       -3.5642892296
 H       -11.0637305897        1.6187404782       -2.2275787555
 H        -8.5454154300       -1.3247919797       -3.6761303404
 H        -9.7399100748       -1.6463154609       -2.4985561206
 H        -8.0787817348       -2.4426790627       -2.4424661739
 H        -7.2890359901       -1.5142345217       -0.0561855705
 H        -9.0234402549       -1.2522271850        0.0612440502
 H        -7.9539448119        0.0746170355        0.3798144769
 H        -3.5435089762        3.3362519568       -4.1857292190
 H        -3.2344734311        4.8868397590       -3.5779526889
 H        -4.4599123631        4.7338930866       -4.8812844228
 H        -5.4586760824        2.7974315572       -1.0073328222
 H        -3.9648761488        3.8992232481       -1.0231488077
 H        -4.0493271840        2.4287420057       -1.9006101241
 H        -7.7648946584       10.2639179799        1.1052466278
 H        -6.7600845362       10.1045056024       -0.3378119454
 H        -6.2446905517        9.4690749150        1.2305431631
 H        -9.0450461932        6.8094027875        1.4912048053
 H        -9.7180904282        8.3487623910        1.4402284267
 H        -8.2791296533        8.0765655535        2.3932304014
 H       -13.1544616386        5.9652978902       -5.2058773566
 H       -14.3496240904        5.5763587554       -4.0784812334
 H       -12.8040978056        4.6286783898       -4.2545221181
 H       -12.2394484772        8.3425092755       -3.9878942038
 H       -12.8977815399        8.4585545208       -2.3218570619
 H       -14.0525372428        8.0292288274       -3.5332583512
 H       -11.2342674532        5.2086349048        3.6978415528
 H       -12.7724843669        5.2219094914        2.8976554670
 H       -11.4448673821        6.0299477199        2.1711917197
 H        -9.3325109884        2.8858245695        1.3336067521
 H        -9.2993346298        3.2808327807        2.9273210169
 H        -9.1471323569        4.5988330593        1.8107429094
 H       -15.5692560940       -1.2694506648        4.0175336964
 H       -15.4471865552       -2.0499641180        5.5081068906
 H       -14.0233347906       -1.4146318205        4.7710715410
 H       -17.3616210292       -0.2198014140        6.3181174739
 H       -17.2372364754        0.6114635209        4.7826598780
 H       -17.0232033255        1.5232677046        6.2289538190
 Na       -8.4875495773        4.3495426675       -1.9403392733
