117

 C       -15.0358701842        1.0722635819        8.2531265175
 C       -14.4682977852        0.1823426535        7.2148977202
 O       -13.5441954255       -0.5393793828        7.3357383753
 C       -15.1834277577        0.2620879039        5.7588488594
 C       -14.3976280935        1.4594239242        5.1405284508
 O       -14.7531532228        2.5996349633        5.3760860976
 C       -13.1870416262        1.1498226884        4.2271567211
 C       -12.3663902550        2.4103382636        3.9803920921
 C       -11.9260282821        2.5307898226        2.5003431310
 O       -12.0652482270        1.6959592838        1.6429916654
 C       -11.1830263575        3.8214552699        2.0259020127
 C       -11.3570478030        4.0848347334        0.4586862216
 O       -10.5039258498        4.5081649029       -0.2292981973
 C       -12.8481702565        3.7787901264       -0.1118078412
 C       -13.0732973989        4.3901043407       -1.4781676728
 C       -12.9684713352        5.9178490535       -1.6768249092
 O       -13.1543939640        6.7100733103       -0.7776716081
 C       -12.5663177393        6.3546854432       -3.0606250176
 C       -11.0393571178        5.9681446298       -3.1571013372
 O       -10.6670776704        4.8546218890       -3.4408745043
 C        -9.9161848897        7.1014611775       -2.8732646006
 C        -9.9546394977        7.5092834787       -1.3825790966
 C        -8.6421877634        8.2130572695       -1.1728557827
 O        -8.0479979178        8.7558798363       -2.0880096476
 C        -7.9036711095        8.1643537448        0.2046297961
 C        -6.9339787701        7.0373845179       -0.1565534322
 O        -7.2123363273        5.8282038751        0.0301483251
 C        -5.6113953322        7.4185812177       -0.9036330465
 C        -4.8744092760        6.2287759122       -1.4667057047
 C        -5.7848551514        5.2747233846       -2.3661885661
 O        -6.8517353782        5.6637389393       -2.8121142548
 C        -5.1171935363        3.8893587595       -2.8180072512
 C        -6.2101125287        2.8792047797       -3.4783152149
 O        -7.3787860800        3.1828397247       -3.6220314373
 C        -5.7152352194        1.5397830233       -4.0493936049
 C        -6.5879140261        0.3018598756       -3.7190330430
 C        -6.7817690741        0.0500529997       -2.2608361568
 O        -5.8270439951        0.0267599924       -1.4674936782
 C        -8.2104100142       -0.4209326733       -1.6659857895
 C        -9.0653128013        0.8729654261       -1.8767474688
 O        -8.6634313367        1.9549106413       -1.4822273793
 C       -10.5276982289        0.8073620500       -2.3374607070
 C        -8.8420687756       -1.6528322837       -2.4114455013
 C        -7.9813965691       -0.7659684247       -0.1887005891
 C        -4.1009319990        4.1521625100       -3.9059883094
 C        -4.3954714579        3.2032453927       -1.5658329417
 C        -7.1970577714        9.5628179119        0.4718564276
 C        -8.6656640695        7.7337427662        1.5077518621
 C       -13.3546236240        5.6016911766       -4.1920442150
 C       -12.7783849485        7.8425571435       -3.2487951897
 C       -11.6770241484        5.1920055878        2.6624615845
 C        -9.6872928322        3.6800904448        2.3081410769
 C       -15.0912386880       -1.0712686762        4.9687320632
 C       -16.6307464105        0.7029752688        5.9507977207
 H       -16.0604270674        0.7962614279        8.5005968061
 H       -15.1866668775        2.1687628293        7.8981542652
 H       -14.5670421400        1.0108173306        9.2321627003
 H       -13.6650927602        0.7752508511        3.3024398826
 H       -12.6326926169        0.3184395214        4.5664154733
 H       -11.5825533914        2.3525192146        4.7895388334
 H       -13.0224671025        3.2611266899        4.2468491027
 H       -13.5310114043        4.1153336192        0.6575828102
 H       -12.8909945604        2.6497434709       -0.1865397629
 H       -14.0706788229        4.2315377231       -1.7909999498
 H       -12.4663257360        3.9640529504       -2.2334439518
 H       -10.2308946362        8.0293196623       -3.3859322164
 H        -8.9904970608        6.6090191653       -3.1097109002
 H       -10.0201605380        6.6397471326       -0.7161292443
 H       -10.8103229747        8.1204174955       -1.2489691803
 H        -4.9723850771        8.0151321074       -0.2555409497
 H        -5.9401511996        8.0252235827       -1.6477501943
 H        -4.3873067751        5.6497966865       -0.6987580981
 H        -4.0345918858        6.6103433090       -2.0873177234
 H        -4.7160448136        1.4182462473       -3.7214038684
 H        -5.6095359618        1.5795963702       -5.1129967611
 H        -6.2238091538       -0.6457696539       -4.1626210351
 H        -7.5759626742        0.4563623220       -4.2125613719
 H       -11.2549965842        0.4397200551       -1.6297365606
 H       -10.6040829916        0.2851340665       -3.2761257538
 H       -10.8653306272        1.8014718030       -2.5078935146
 H        -9.3206814479       -1.3464953803       -3.4008655582
 H        -9.6419641417       -2.0333204137       -1.8289294564
 H        -8.1281543773       -2.3841712861       -2.6286892151
 H        -7.5006354287       -1.6960548784       -0.0810633351
 H        -8.8887241258       -0.8652586561        0.4159251523
 H        -7.4334566342       -0.0061321157        0.3152152207
 H        -3.7958405334        3.1355554933       -4.3702329128
 H        -3.1719901188        4.6495700840       -3.6193251460
 H        -4.4808459680        4.7780134286       -4.6516662191
 H        -4.8792805946        3.5183899657       -0.6493454681
 H        -3.2468237808        3.4260543843       -1.6076034570
 H        -4.5619460966        2.1289632194       -1.4875188554
 H        -7.8716140138       10.3698676319        0.8050640822
 H        -6.7895727039        9.9214892827       -0.5395409817
 H        -6.3713769875        9.4140538561        1.2531390382
 H        -9.0631969247        6.6889791654        1.3756752262
 H        -9.5914728221        8.3154621747        1.6980283956
 H        -8.0400037145        7.5728506575        2.3925540465
 H       -13.1722348565        6.1112559145       -5.1895214590
 H       -14.3843142479        5.7995168889       -3.9498927835
 H       -13.0836774430        4.5600742755       -4.4100174636
 H       -12.7505616417        8.2052452160       -4.2121618551
 H       -12.0227623025        8.4226183318       -2.6249806910
 H       -13.7720655622        7.9258191589       -2.8209022311
 H       -11.8748064697        5.0828431716        3.7284961863
 H       -12.6375542796        5.5294708439        2.2546807716
 H       -11.0385200395        6.0095334603        2.5386814872
 H        -9.2639323502        2.7614934096        1.9942559490
 H        -9.4354256279        3.6880010916        3.3831051296
 H        -9.0759203253        4.4886588924        1.8389299685
 H       -15.3436105779       -1.0070935249        3.8695330342
 H       -15.7720849719       -1.7611310669        5.4974213455
 H       -14.1032144120       -1.5235067180        5.0696434413
 H       -17.1123576001        0.1437607789        6.7539654969
 H       -17.3324396795        0.6891993445        5.1549782127
 H       -16.6177943205        1.7659874054        6.2641420679
 Na       -8.9556521402        4.2901854840       -2.0636626997
