117

 C        -1.1356645761        4.1264253399        4.8529776459
 C        -1.9103448278        5.2030019717        5.6741870778
 O        -2.1262517690        4.9115963910        6.8601456590
 C        -2.4366093097        6.4577988252        4.8913914679
 C        -3.7841136515        5.8797834873        4.2754346237
 O        -3.7644762631        5.3275924627        3.2250231337
 C        -5.2383953819        6.2391857772        4.9632268055
 C        -6.2447177089        5.1561306582        4.4818431449
 C        -7.6883668724        5.6992665440        4.6157984386
 O        -7.9302559775        6.8733454530        4.6557575572
 C        -8.9282075256        4.7232022135        4.3897873251
 C       -10.0877627559        5.5711913034        3.7209411480
 O       -11.0077425049        5.8942026696        4.4395339964
 C        -9.9277106064        6.4349439889        2.3917184363
 C       -11.3273404953        6.9935209470        1.9206058472
 C       -12.0397302763        5.9816591960        0.9330889140
 O       -11.3617741350        5.0334689221        0.5804876301
 C       -13.5530550124        5.9882163715        0.5516039903
 C       -13.8327824807        4.4973284756        0.1286416425
 O       -13.4545570923        4.0507184056       -0.9433536860
 C       -14.5573087179        3.6441645227        1.2509260082
 C       -14.7756051808        2.1556790240        0.8515986987
 C       -13.6419375741        1.4419793021        0.2313211908
 O       -12.4903499938        1.4754850999        0.6680088472
 C       -13.9627677470        0.2456704280       -0.8298404805
 C       -13.0769280585        0.6624452697       -2.1703935517
 O       -11.9663005422        1.1547743865       -2.1566186529
 C       -13.8315729302        0.4974931445       -3.5393671193
 C       -12.7483223764        0.5433369512       -4.6615871905
 C       -12.8867172679        1.1918610812       -6.0236169351
 O       -13.9450603404        1.5068219772       -6.5216525924
 C       -11.4948528215        1.7402181895       -6.8773957900
 C       -10.5142384653        2.1633502469       -5.7397399348
 O        -9.9433016070        1.4438238081       -4.9062515492
 C       -10.1412193458        3.6320001364       -5.6623261456
 C        -8.9107985550        3.8922236131       -4.8739775139
 C        -9.0903187298        3.5586507957       -3.4363021707
 O       -10.1246771125        3.7429082515       -2.8697406771
 C        -7.8383646889        2.8638192917       -2.6308681289
 C        -8.5082825481        1.7124831633       -1.7675804576
 O        -9.1699806602        1.9866280243       -0.7845035183
 C        -8.2406667102        0.1840624313       -2.1483909725
 C        -6.6768813572        2.4720974703       -3.5334572531
 C        -7.4703051393        3.8847856469       -1.5326286639
 C       -10.9900324410        0.4865811526       -7.5774504099
 C       -11.8803786549        2.7829563872       -7.9196022941
 C       -13.4233310505       -1.0869954992       -0.3186688345
 C       -15.4971267699        0.0508566698       -1.1686750563
 C       -14.4418566435        6.6322584418        1.6521030285
 C       -13.7436711869        6.7918034635       -0.9096609293
 C        -8.6011996047        3.5400350501        3.4422608404
 C        -9.4338431371        4.0842010030        5.7683212369
 C        -2.5072634270        7.6549751287        5.9034784055
 C        -1.4661004206        6.8645292843        3.7284387238
 H        -1.4400203003        3.9062921666        3.9060777205
 H        -1.1933310290        3.1450345556        5.3555493556
 H        -0.1490930606        4.3881901255        4.6110107639
 H        -5.4411136459        7.2474146091        4.5706328217
 H        -5.1176629229        6.1521046320        6.0858780577
 H        -6.2069433274        4.2776596624        5.0138896939
 H        -6.0469489176        4.9030644861        3.4747400806
 H        -9.5208031614        5.8890516353        1.5497107028
 H        -9.2686218351        7.2353264347        2.7199427237
 H       -11.1890520800        7.9567278622        1.3061774596
 H       -11.9373631126        7.2462858975        2.7968122652
 H       -15.5767928409        4.1075494676        1.4215091172
 H       -13.8631077811        3.7408831244        2.0465850838
 H       -15.5501594415        2.1975905024        0.1425350363
 H       -15.0803307323        1.6730682685        1.7818704335
 H       -14.6517688748        1.2581893211       -3.7006719421
 H       -14.4981492319       -0.3663103517       -3.7204420261
 H       -12.4791831924       -0.4774791689       -4.7946595471
 H       -11.8622854435        0.9325426387       -4.2186086895
 H       -10.9841846920        4.1939193851       -5.2805387047
 H       -10.0316422247        4.0331407918       -6.6465514255
 H        -8.6592901730        4.9580902011       -4.7944921083
 H        -8.0872694457        3.3748441394       -5.2896359056
 H        -7.2664869051        0.1307707610       -2.5651846900
 H        -9.0114710479       -0.0193847526       -2.9120439352
 H        -8.1935298241       -0.5627810084       -1.4048459944
 H        -6.1991100869        3.3710334972       -3.8231017293
 H        -7.0236180199        1.8823100065       -4.4567948079
 H        -5.9179500095        1.8824058160       -3.0808738317
 H        -8.3624698961        3.9666232893       -0.8985899465
 H        -7.3368201338        4.9016205341       -1.9331788188
 H        -6.5034327565        3.7045719350       -1.0094417245
 H       -11.6988701065        0.0819031593       -8.2843234412
 H       -10.6407292339       -0.2558384591       -6.7871045153
 H       -10.1694771411        0.8983614065       -8.1651304374
 H       -11.7436955814        3.8715315697       -7.5951298040
 H       -12.9519829262        2.7308991984       -8.0875149537
 H       -11.2701049218        2.5270557973       -8.8124853932
 H       -13.9928288270       -1.2604061834        0.6068205326
 H       -12.3521122849       -1.1725158262       -0.0282820109
 H       -13.8592011953       -1.8782985864       -0.9622488698
 H       -16.0470710707        0.2093651826       -0.2939004159
 H       -15.7160161232       -0.9266412502       -1.6317897499
 H       -15.8990393290        0.9084712299       -1.8489569476
 H       -15.4579068933        6.7410025293        1.3354979231
 H       -14.1329506660        7.5990016712        1.9452792102
 H       -14.5183377900        5.9808838556        2.5349570951
 H       -13.2397852373        6.2765826625       -1.7692561347
 H       -13.4753389109        7.8664451772       -0.8508357764
 H       -14.7834789193        6.8664733035       -1.2317058788
 H        -8.0476588396        2.6772884217        3.8679250660
 H        -8.1999805329        3.9286909834        2.5045121965
 H        -9.5444500850        3.0288372993        3.1510360250
 H        -9.4338404716        4.9126927547        6.5167084553
 H        -8.6961940071        3.2851802403        5.9553375243
 H       -10.4572301657        3.5939740477        5.6857830889
 H        -2.9361875123        7.1946856192        6.8498558377
 H        -3.0807581917        8.6142672314        5.7329999211
 H        -1.5340271668        7.9222455892        6.2280095281
 H        -1.9329930152        6.6050808158        2.7265186998
 H        -0.5844960914        6.2025663551        3.8506414226
 H        -1.2705970783        7.9159308848        3.7159126727
 Na      -11.0260673275        3.1459496002       -0.6550829761
