117

 C       -14.9476211114        1.1010231639        8.4934045394
 C       -14.4796056764        0.3011304377        7.2558912819
 O       -13.6028643061       -0.5595010635        7.3629672442
 C       -15.2155169875        0.4972879538        5.8232162589
 C       -14.4499382056        1.6082173827        5.0816736500
 O       -14.6697963966        2.7838286808        5.2620847515
 C       -13.3109209627        1.2100567891        4.0815838867
 C       -12.4577328803        2.4634956645        3.7507257667
 C       -11.8837100340        2.5162613244        2.3791635607
 O       -11.9168771894        1.6405805790        1.5255957152
 C       -11.1327813345        3.8849263672        2.0507138986
 C       -11.2249808013        4.0470642062        0.5271023829
 O       -10.2263946962        4.1274256546       -0.2039748162
 C       -12.6908878701        4.1035380337       -0.0262566381
 C       -12.8938640813        4.3660523588       -1.4725261084
 C       -12.8352867008        5.8471499518       -1.7176345845
 O       -12.9753289895        6.6405502621       -0.8075656342
 C       -12.5761244624        6.4014576124       -3.1450814333
 C       -11.0369245210        6.0799392006       -3.3142302750
 O       -10.8118982212        4.8943315350       -3.6270615665
 C        -9.8830700881        6.9821193788       -2.9969808369
 C        -9.9507638707        7.5950976723       -1.6062896938
 C        -8.6407999986        8.3276911092       -1.2994865913
 O        -8.2738939840        9.1985823435       -2.0704268774
 C        -7.8929448585        8.1068147349        0.0791689130
 C        -6.8898057685        6.9236081742       -0.1727513139
 O        -7.2173077341        5.8085061967        0.0759307582
 C        -5.6262482191        7.3234120219       -1.0099852426
 C        -4.8555535552        6.0801914531       -1.4548769584
 C        -5.7381146530        5.1539232456       -2.2653684716
 O        -6.8694821650        5.4780735566       -2.5748524619
 C        -5.1147982630        3.8000229084       -2.7514104740
 C        -6.2436860323        2.8848099674       -3.4048268632
 O        -7.4235860237        3.1688713169       -3.3792846646
 C        -5.7725604315        1.4790383945       -3.9506208622
 C        -6.7490117096        0.3613073184       -3.6634011589
 C        -6.8061533915       -0.0263669047       -2.1644530387
 O        -5.8163816321       -0.0725482139       -1.4876040345
 C        -8.2095700477       -0.3728252872       -1.6042335254
 C        -9.0764893808        0.9081615967       -1.7806337900
 O        -8.6001380128        2.0107349488       -1.5374065144
 C       -10.5106668923        0.8127832186       -2.1976264978
 C        -8.7768232439       -1.6658439143       -2.3298270989
 C        -8.2034563270       -0.6258291084       -0.0598489001
 C        -4.1035688462        4.1847565124       -3.9371444264
 C        -4.3747333689        3.0353218562       -1.6333403116
 C        -7.1670936632        9.3584585530        0.5636276595
 C        -8.8671034587        7.7231171415        1.2401784812
 C       -13.4041991435        5.6000410833       -4.1918719413
 C       -12.8577990642        7.9129417271       -3.3004328239
 C       -11.6732328557        5.0782870513        2.7739278051
 C        -9.7137045088        3.6830209820        2.5396507623
 C       -15.0444224808       -0.8891890023        5.0822199649
 C       -16.6884434089        0.7578822963        5.9251240579
 H       -15.8540459038        0.7366443297        8.9678403888
 H       -15.1113550810        2.1002241382        8.3214973079
 H       -14.2642239615        1.0278131727        9.3268928796
 H       -13.8472409537        0.9936348502        3.1198318780
 H       -12.8091166443        0.2094895051        4.3613721255
 H       -11.7850356773        2.7112512273        4.5468153660
 H       -13.1795574352        3.2981544672        3.7570408464
 H       -13.2078002410        4.8356198461        0.6189727226
 H       -12.9987573255        3.1130885859        0.1464012284
 H       -13.9339014051        4.0365372067       -1.7917574444
 H       -12.1201791569        3.9303593380       -2.1584478289
 H        -9.9306937289        7.7243870057       -3.7599348872
 H        -9.0116495667        6.3128096287       -2.9550221740
 H       -10.1425361785        6.7613480038       -0.9489182289
 H       -10.7540217868        8.3801303590       -1.5751280512
 H        -5.0067751982        8.0401809682       -0.4681683091
 H        -6.1435316389        7.9350757698       -1.8897850355
 H        -4.2791246802        5.5578333958       -0.6452574576
 H        -4.0485728968        6.3536346607       -2.1363578413
 H        -4.7560301898        1.1761903034       -3.5929155210
 H        -5.5896364378        1.5746163154       -5.0477758032
 H        -6.4076544543       -0.5349197128       -4.1511975120
 H        -7.6961973776        0.5420218317       -4.1042106546
 H       -11.0098432345        0.6664552470       -1.2135246444
 H       -10.8006088099        0.0648724887       -2.9297645893
 H       -10.9875885693        1.8128274797       -2.4494174353
 H        -8.7897551435       -1.5926707507       -3.3882404768
 H        -9.7941628367       -1.9099755459       -1.9511790243
 H        -8.0571239847       -2.4829852307       -2.0277275527
 H        -7.6585579012       -1.6147311353        0.2047044344
 H        -9.1567238851       -0.7597766881        0.4057813431
 H        -7.7085906169        0.1969216475        0.5276675004
 H        -3.4293582039        3.4436465367       -4.2807464848
 H        -3.6114741511        5.0650334508       -3.5875586658
 H        -4.6463915353        4.6349392918       -4.7903832575
 H        -4.9038816155        3.1940281781       -0.6393624176
 H        -3.4344277274        3.3053807981       -1.5703487104
 H        -4.5040934426        1.9419598309       -1.6774306977
 H        -7.8754464978       10.1663785102        0.6457967847
 H        -6.6060162743        9.6934572165       -0.2516431119
 H        -6.6419936693        9.2077244968        1.4398029080
 H        -9.4103600727        6.8035286497        1.1580061055
 H        -9.5978057379        8.4921230418        1.4362423734
 H        -8.2918581122        7.4672130752        2.1433125830
 H       -13.1597177646        5.8694950129       -5.1776623677
 H       -14.4819235486        5.7602534628       -3.9839297300
 H       -13.1399994080        4.5091450229       -4.1373356983
 H       -12.4648603190        8.1254587299       -4.3589910619
 H       -12.2302066280        8.4089536207       -2.6661888961
 H       -13.9178154526        8.1693931680       -3.3332480323
 H       -11.6062983234        5.0713354101        3.8614124101
 H       -12.7362765541        5.2625529810        2.5721220382
 H       -11.1627956103        6.0359474906        2.4163746050
 H        -9.3644189304        2.6184071491        2.4749036692
 H        -9.5074307208        4.0255270463        3.5294064389
 H        -8.9771425177        4.1628648959        1.9261417811
 H       -15.0519847102       -0.7410459292        4.0068259149
 H       -15.8217813027       -1.6015752567        5.4005633974
 H       -14.0741131315       -1.3842962901        5.3415806469
 H       -17.1831867750       -0.0592762679        6.4087796521
 H       -17.1716655415        0.8170297679        4.9574239707
 H       -16.9612777445        1.6435002434        6.3866645027
 Na       -9.0137374738        4.1131770346       -2.2051585133
