117

 C       -14.8914737650        1.1286619058        8.4560702453
 C       -14.4898017504        0.2800920457        7.3013110963
 O       -13.5892828222       -0.4796433398        7.4234225188
 C       -15.1775410372        0.4803623909        5.8596159039
 C       -14.4124428903        1.6638915004        5.1400021129
 O       -14.7561274990        2.8068912247        5.2896725033
 C       -13.4417017111        1.2509394660        4.0273304753
 C       -12.5691608911        2.4971338664        3.7234747099
 C       -11.8605921814        2.4869221420        2.4015792152
 O       -11.8780677232        1.6133461489        1.5850970907
 C       -11.0393155583        3.8434237080        2.0894708927
 C       -11.1372238075        3.9747238805        0.5438294121
 O       -10.1744957242        4.0379205204       -0.1186921424
 C       -12.6783382238        4.1685499450       -0.0253677395
 C       -12.7418752840        4.3898640885       -1.5115410088
 C       -12.8742497630        5.9535291725       -1.7215483757
 O       -12.8693863848        6.7108552602       -0.7814611221
 C       -12.5822460039        6.4170666602       -3.2728609442
 C       -11.0362816451        6.0645266613       -3.4041832695
 O       -10.7971072330        4.8868971909       -3.6783519011
 C        -9.9177337371        7.0618498618       -3.1237077647
 C        -9.8694088568        7.5132227961       -1.6702567030
 C        -8.7190065131        8.4593013483       -1.3414037283
 O        -8.3685048121        9.3970547359       -2.0621964732
 C        -7.9073057698        8.1407472816        0.0616817502
 C        -6.9564663632        6.9162389797       -0.2710597209
 O        -7.1048640549        5.7592555547        0.1386213527
 C        -5.6323337806        7.2887673721       -0.9740224370
 C        -4.8980141791        6.0097150995       -1.4061742129
 C        -5.8018804586        5.0643479475       -2.2541710649
 O        -6.9513334976        5.3760076804       -2.4736373861
 C        -5.1322019819        3.7612796286       -2.7791757659
 C        -6.2078892998        2.7643921958       -3.3562557713
 O        -7.3867426932        3.0334615471       -3.5016452177
 C        -5.7615895033        1.4248190025       -3.8360591871
 C        -6.8449978179        0.3904721564       -3.6332751765
 C        -6.8201051474       -0.0345571828       -2.1668737148
 O        -5.7567577645       -0.0793211626       -1.5071078709
 C        -8.2269370607       -0.3472374877       -1.5673892604
 C        -9.0791203032        0.9225826222       -1.7586171346
 O        -8.5326773168        1.9797072098       -1.4327670676
 C       -10.5841879983        0.7573214679       -2.0944510386
 C        -8.7576922724       -1.6220041190       -2.2402821193
 C        -8.2778703142       -0.5837536583       -0.0547893884
 C        -4.1400467056        4.0981875119       -3.9007303912
 C        -4.3651659798        3.0092437327       -1.6980811878
 C        -7.1111584779        9.3340796269        0.6306014139
 C        -8.9895508314        7.7250488352        1.0864815927
 C       -13.4354707416        5.5902593873       -4.2448597805
 C       -12.9268620881        7.9339494154       -3.4086064335
 C       -11.6920893610        5.0848700089        2.8081866137
 C        -9.5762005998        3.6770846968        2.5097786193
 C       -15.0945022471       -0.8573304035        5.0721650683
 C       -16.6384594923        0.8587662504        5.9003856661
 H       -15.7762156247        0.6950138010        8.8447384890
 H       -15.1707677851        2.1920530130        8.2300359622
 H       -14.2806052450        1.1515968460        9.3234557157
 H       -13.8548949953        0.8403186143        3.1185738463
 H       -12.8954003434        0.4785005637        4.5247956958
 H       -11.8032429029        2.5320871299        4.5790546610
 H       -13.1191608609        3.3910494717        3.9008429245
 H       -12.9756575289        5.1061732759        0.4717612792
 H       -13.3021921734        3.2810609668        0.2925741621
 H       -13.6999236220        3.9440681145       -1.9389616958
 H       -11.8684160664        4.0880506248       -2.1108736286
 H       -10.1153966918        7.9080238391       -3.7747042085
 H        -8.9824701908        6.5041679023       -3.2869424725
 H        -9.8670743096        6.5972508742       -1.0395971095
 H       -10.7773810801        8.1756354931       -1.4978071785
 H        -5.0440868637        7.9147834518       -0.2589553123
 H        -5.9282993393        7.9580171944       -1.8372851090
 H        -4.4893084131        5.4214968944       -0.5424386188
 H        -3.9818862185        6.2138182588       -1.9429539489
 H        -4.8003342739        1.0344637536       -3.4621728643
 H        -5.5213589293        1.6790012082       -4.9222163247
 H        -6.7736660709       -0.4730559294       -4.3342965815
 H        -7.8356836525        0.7972851382       -3.7896650339
 H       -11.1584533752        0.5899813931       -1.1643686871
 H       -10.8019358833        0.0462634372       -2.8643994081
 H       -11.0450713229        1.7392236389       -2.4170020447
 H        -8.4146860667       -1.5691165297       -3.3456341951
 H        -9.8149600956       -1.8121709282       -2.1660243574
 H        -8.2043537064       -2.4067137160       -1.7817378419
 H        -7.6213290278       -1.4225908587        0.2755578758
 H        -9.2286003963       -0.8852339627        0.3034513850
 H        -8.0136790463        0.3113335225        0.5391219197
 H        -3.5214594808        3.1400371107       -4.1335086895
 H        -3.5068554596        4.9374338338       -3.5994389266
 H        -4.5950780341        4.4020923064       -4.8005277250
 H        -5.0721366559        2.8809027514       -0.8852904384
 H        -3.5066985358        3.6018412709       -1.2651770038
 H        -4.1002394675        2.0256700358       -1.8991071204
 H        -7.7429366925       10.1227883339        0.8465790622
 H        -6.4776911215        9.7287012907       -0.1559992949
 H        -6.5984180466        9.0015313488        1.4766024454
 H        -9.4455934597        6.8009004632        0.9365006998
 H        -9.7395876865        8.4565819401        1.0339606259
 H        -8.6911378710        7.5881346020        2.1198041213
 H       -13.1722609367        5.8910319196       -5.2290490940
 H       -14.4614894836        5.6637331061       -4.0668464357
 H       -13.0977117874        4.5153785796       -4.1816942140
 H       -12.4039151820        8.3522377409       -4.2391950738
 H       -12.4887693627        8.3596702130       -2.4728347918
 H       -13.9862281494        8.0944000944       -3.6587991621
 H       -11.4640939081        5.2772788657        3.8457522492
 H       -12.8112497017        5.0608005563        2.7589266530
 H       -11.4423850890        6.0028306665        2.2794637404
 H        -9.0621839549        2.7506946997        2.3246003967
 H        -9.4355092518        3.9840081832        3.5320579542
 H        -8.9168859743        4.3702826825        1.9633416934
 H       -15.4626443594       -0.6438548428        4.0751176866
 H       -15.7327685637       -1.5559733405        5.5657257367
 H       -14.1563110326       -1.3122513394        4.9879527680
 H       -17.3441260628        0.1194974263        6.3297920951
 H       -17.0334496844        1.0307924199        4.9136105366
 H       -16.7956653905        1.8254156528        6.3795659802
 Na       -8.9822901503        4.1037320692       -2.2842284660
