117

 C       -14.9778924354        1.2948913344        8.3195956589
 C       -14.5173080367        0.4154927519        7.1965832347
 O       -13.5883565657       -0.3932131631        7.3320133825
 C       -15.2899914464        0.4606065239        5.8799728306
 C       -14.5269631028        1.6045955306        5.1470781012
 O       -14.7424997300        2.7812641937        5.4283005098
 C       -13.3963444407        1.3345676258        4.1217569035
 C       -12.5394343692        2.5578428571        3.8475362582
 C       -11.7587814615        2.5418595683        2.5568054768
 O       -11.8037181758        1.5403680991        1.8463504239
 C       -10.9521666332        3.8762369577        2.1198447085
 C       -11.1124295096        4.0068196785        0.5177617989
 O       -10.1205239295        4.0574591275       -0.2299538841
 C       -12.5724152818        4.1586080427       -0.0272657403
 C       -12.7005774335        4.5357999866       -1.5194564440
 C       -12.6655558619        6.0430037818       -1.8264227834
 O       -12.7911245473        6.9398211727       -1.0127543545
 C       -12.4957935633        6.4096583659       -3.4120998414
 C       -11.0152811105        6.2422260851       -3.5724704855
 O       -10.5908386284        5.1067174264       -3.6918961493
 C        -9.9813219848        7.4187869854       -3.4367289523
 C        -9.6776612449        7.3989026549       -1.9148872043
 C        -8.6317983428        8.4251957377       -1.4334546751
 O        -8.5470030687        9.5272375067       -1.9239054874
 C        -7.9977425405        8.1008367292        0.0146176977
 C        -7.0134330836        6.9545766462       -0.1539043056
 O        -7.2103664769        5.9302829713        0.4186179878
 C        -5.7005944445        7.1923734746       -1.0148733918
 C        -4.9900569933        5.9009682467       -1.2967276576
 C        -5.8630071606        4.9518047889       -2.1821545233
 O        -7.0176913372        5.2445112480       -2.4384295902
 C        -5.1679153211        3.6085184191       -2.7713385198
 C        -6.1847419881        2.6304660014       -3.4686971101
 O        -7.2676476027        3.0052051410       -3.8863705646
 C        -5.7126326032        1.1875401947       -3.9050878929
 C        -6.7583011040        0.1179790253       -3.6049325159
 C        -6.8569095151       -0.1490512689       -2.0809522420
 O        -5.8919766846       -0.1318828870       -1.3856213035
 C        -8.3080338705       -0.3887179639       -1.4267610851
 C        -9.1818438018        0.8890302721       -1.6261409925
 O        -8.5955262801        1.9352782776       -1.3998209484
 C       -10.6388304540        0.8406130744       -1.9815447540
 C        -8.8911077610       -1.6484934144       -2.1178716535
 C        -8.0400409933       -0.7028639082        0.1099670338
 C        -4.1769819281        4.0306683107       -3.9265022863
 C        -4.4031942863        2.9245551115       -1.6159898039
 C        -7.2314941192        9.3912156773        0.4649390693
 C        -9.0922901837        7.6482895134        1.0150886054
 C       -13.4169408447        5.5153623403       -4.3100212604
 C       -12.9314046828        7.9115025933       -3.5166457552
 C       -11.5009417489        5.1142235135        2.7764753104
 C        -9.4699876252        3.6656027003        2.4548457551
 C       -15.2577129735       -0.9252618015        5.1801094299
 C       -16.7168850698        0.9276117274        6.1889894859
 H       -15.9499335523        1.0621597497        8.8630624602
 H       -14.9694418087        2.3353805836        8.1233227761
 H       -14.2257136572        1.2103605707        9.1601700222
 H       -13.8939858912        1.2383814539        3.1619987505
 H       -12.8360132701        0.4005582026        4.3566515865
 H       -11.8347432427        2.6920316826        4.6268036646
 H       -13.1558494332        3.5035957952        3.9935155834
 H       -13.0430145056        4.9284098357        0.6456021458
 H       -13.0018557113        3.1686112672        0.1021265523
 H       -13.6034735788        4.2005783941       -1.9179791139
 H       -11.8567142449        4.1912724538       -2.0958375127
 H       -10.4594690199        8.4123468135       -3.6192161855
 H        -9.0685664272        7.2708093807       -4.0450000074
 H        -9.2499317575        6.4297330319       -1.6732708915
 H       -10.5999722798        7.6130299262       -1.4157566437
 H        -5.1022509250        7.8326013985       -0.4443198951
 H        -5.9299652004        7.6820643140       -1.9540314451
 H        -4.6295809493        5.3851688730       -0.4467525286
 H        -4.0393965381        6.1178303250       -1.8211260324
 H        -4.7864921222        0.8645801758       -3.4371729128
 H        -5.5256256646        1.2350610226       -4.9521289994
 H        -6.4263176601       -0.7916932767       -4.1163200251
 H        -7.7873506198        0.3258307225       -4.0271222275
 H       -11.1877399603        0.2614081249       -1.2626877905
 H       -10.7833371950        0.3941651586       -2.9611380294
 H       -11.0886983122        1.8003281912       -1.9846415568
 H        -9.0277321909       -1.4845329477       -3.1102832954
 H        -9.8229153212       -1.8783289901       -1.5818227375
 H        -8.2182044989       -2.5122443797       -1.9147618747
 H        -7.1742257272       -1.3557933268        0.2339613247
 H        -8.8544308319       -1.2139559937        0.5783129093
 H        -7.8095104877        0.1133366822        0.7326554939
 H        -3.8495416901        3.1845579811       -4.4343897698
 H        -3.3405539865        4.6396064828       -3.5103568891
 H        -4.7327582751        4.6674003653       -4.7177701758
 H        -4.9451674612        2.1797288647       -0.9263391258
 H        -4.0326553884        3.6157771741       -0.9930928744
 H        -3.5052490627        2.3493759062       -2.0477871569
 H        -8.0233405612       10.1382515670        0.8613291034
 H        -6.7360457073        9.8966398482       -0.3832979214
 H        -6.5526908540        9.0690571132        1.2973552786
 H        -9.2552446724        6.5603325782        1.1261991005
 H       -10.0644182608        8.1644450257        0.9724330574
 H        -8.7546080918        7.9492917656        2.0152122430
 H       -13.4478745421        5.8975419877       -5.3345957611
 H       -14.4460063681        5.3425580108       -3.8558817191
 H       -13.0410082109        4.5123797192       -4.2501263876
 H       -12.4516886209        8.3770002296       -4.4245169533
 H       -12.7398386397        8.3786256102       -2.6068168822
 H       -13.9573300220        7.9282390392       -3.8369329759
 H       -11.3622804423        5.0992757437        3.8401543583
 H       -12.5209685763        5.2808439575        2.6466689350
 H       -10.9440521158        5.9983706976        2.4752642465
 H        -9.0357243698        3.0866784989        1.6219323313
 H        -9.2233102307        3.2780667783        3.4353094127
 H        -8.8336818550        4.5203450137        2.4159100228
 H       -15.8200193887       -0.8505812571        4.2874147977
 H       -15.6191405992       -1.7325254333        5.8020509871
 H       -14.2119263829       -1.1288431902        4.8885338180
 H       -17.2937032140        0.2690227184        6.8395528253
 H       -17.3414845928        0.8895330943        5.2451318141
 H       -16.8250976162        1.9461642413        6.5536480100
 Na       -8.9969386792        4.0985080328       -2.3440539977
