117

 C       -14.8768830832        1.3642695669        8.3725826416
 C       -14.4992617706        0.4031758869        7.2796456728
 O       -13.5696922927       -0.3320342195        7.2925645002
 C       -15.3361584052        0.5164351021        5.8404823989
 C       -14.5615210262        1.6915186245        5.1318890937
 O       -14.7376396769        2.8230862789        5.4880451592
 C       -13.3893188624        1.3485979378        4.1444007618
 C       -12.5160371085        2.5977373462        3.9375690319
 C       -11.7488987377        2.5844952511        2.5677592772
 O       -11.7013989734        1.5820228556        1.9245165132
 C       -10.9404414710        3.8493945797        2.0512885077
 C       -11.1276730744        4.0581034340        0.4926526390
 O       -10.1580819605        4.1367508853       -0.1798680551
 C       -12.5836669159        4.2258593257       -0.1142058166
 C       -12.7096990888        4.5399102548       -1.6051391529
 C       -12.7248843136        6.0810872691       -1.8708934025
 O       -12.7198726330        6.9057856909       -0.9814047810
 C       -12.5709664902        6.5026401257       -3.4264706618
 C       -10.9558407775        6.3499319722       -3.6871375549
 O       -10.4487664534        5.2325673455       -3.7557590303
 C        -9.9535457881        7.4606601566       -3.4718928821
 C        -9.5546370805        7.3342004995       -2.0004393604
 C        -8.7306210031        8.4525957962       -1.3813862630
 O        -8.5882180398        9.5227674258       -1.9817276656
 C        -8.0486664681        8.1665397210        0.0505693494
 C        -6.9912573671        6.9008583882       -0.0759382758
 O        -7.1352049450        5.8583215826        0.5243811802
 C        -5.8334304613        7.1476203692       -1.0464674739
 C        -5.0662535938        5.8166893709       -1.3338969680
 C        -5.8534657868        4.8298041841       -2.1672493884
 O        -6.9715899397        5.1705030686       -2.4430816127
 C        -5.1606928811        3.5603407258       -2.7923384412
 C        -6.2438096273        2.6287515355       -3.5250836059
 O        -7.3037349076        3.0222433372       -3.9763905858
 C        -5.7428216929        1.1669807143       -3.8021184506
 C        -6.7064642173        0.0045649913       -3.5297397445
 C        -6.8984336226       -0.1963498224       -2.0420397149
 O        -5.9030870533       -0.1303934459       -1.2778566497
 C        -8.3097286059       -0.4345849578       -1.3894794761
 C        -9.1269425270        0.8733789222       -1.4925062831
 O        -8.5676336835        1.9804463195       -1.4663055013
 C       -10.5942684960        0.7720356777       -1.9597024083
 C        -9.0552461815       -1.6800516156       -2.0002731100
 C        -7.9873731259       -0.7705194158        0.0410756486
 C        -4.2220349658        4.1091121207       -3.8216467471
 C        -4.4299653235        2.7103871006       -1.7362758958
 C        -7.3646299906        9.5169875752        0.4364143298
 C        -9.0916676794        7.7885518004        0.9752627194
 C       -13.2682621072        5.4958958648       -4.2838426856
 C       -13.0307225120        7.9750979847       -3.6762702749
 C       -11.3380366530        5.1579153477        2.8017807542
 C        -9.4617310926        3.5871682561        2.4105571839
 C       -15.3859580112       -0.8952227830        5.2162724459
 C       -16.8361288500        0.8238372633        6.1481340934
 H       -15.8961476439        1.2881150730        8.7567083955
 H       -14.7246017039        2.3897903315        8.0631820030
 H       -14.2481403324        1.2822983422        9.2487405728
 H       -13.7033859166        0.9205108348        3.1540874036
 H       -12.7255937943        0.5985506077        4.7177073282
 H       -11.8463089017        2.6121682398        4.7705455384
 H       -13.0492284904        3.5390130863        4.1233332170
 H       -13.0841366870        5.0126291734        0.4405617714
 H       -13.0423348865        3.2830209494        0.0057279469
 H       -13.7059470398        4.1921604897       -1.9237148415
 H       -11.9053121804        4.1750585784       -2.2287481445
 H       -10.4167575676        8.4227766164       -3.5682925714
 H        -9.0547580368        7.4165688160       -4.1539471083
 H        -8.9085738589        6.5036935171       -1.9227977225
 H       -10.4968359145        7.2231757748       -1.4417742618
 H        -5.2389779631        7.9071420359       -0.5943248390
 H        -6.3454746009        7.5815716058       -1.9943480984
 H        -4.7804309601        5.2826298447       -0.3911658325
 H        -4.0890089842        5.9726075106       -1.7424778810
 H        -4.8007409267        0.9777119612       -3.2919038988
 H        -5.5467414993        1.0931793934       -4.8714445683
 H        -6.2028356127       -0.8801643380       -3.9314691493
 H        -7.6266177866        0.1125287664       -4.0637352009
 H       -11.0878817075        0.0756693119       -1.2779942769
 H       -10.7566752672        0.4400512611       -2.9406808126
 H       -11.1325510718        1.7443116812       -1.7789903243
 H        -9.5712735890       -1.4726327649       -2.9540298493
 H        -9.7215769615       -1.9452840769       -1.2167849094
 H        -8.3721867822       -2.5083355441       -2.0673222742
 H        -7.1689294612       -1.5530216786        0.1747148620
 H        -8.8155813557       -1.0906054279        0.5886476063
 H        -7.5564560072        0.0875494824        0.6176952079
 H        -3.7563909871        3.3194177833       -4.4533484868
 H        -3.4659599418        4.6380749140       -3.2906366767
 H        -4.7205730873        4.7750807946       -4.4883256582
 H        -5.1111113179        2.0397131366       -1.1299756182
 H        -3.8536893330        3.2255322689       -0.9541923881
 H        -3.7424014983        2.0753918736       -2.2626728488
 H        -8.2047118080       10.2109365772        0.6468031493
 H        -6.8076422626        9.9640268603       -0.4468200258
 H        -6.7647804864        9.3899729381        1.3379943579
 H        -9.2994768179        6.7051944992        0.8587928378
 H       -10.0504473388        8.3393851950        1.0362405888
 H        -8.7307076493        7.8713320862        2.0753411416
 H       -13.4162554850        5.7999305783       -5.2947091664
 H       -14.2186438879        5.1933761101       -3.8089568660
 H       -12.7315803665        4.4865813440       -4.1313362757
 H       -12.8289195145        8.1733835747       -4.7394488324
 H       -12.5142252563        8.5812908465       -2.9751597681
 H       -14.1064582442        8.1470929151       -3.5872535280
 H       -11.3520766432        5.0196157639        3.8542606671
 H       -12.3548327353        5.4478555321        2.5658360862
 H       -10.6561197827        6.0195620213        2.6686733565
 H        -8.8548632927        3.0943934792        1.6320009123
 H        -9.3605841080        3.1400427347        3.3727455523
 H        -8.8849615808        4.4859438707        2.5601303728
 H       -15.9480335863       -0.8705384597        4.2508221883
 H       -15.9269222976       -1.5685179896        5.9290636842
 H       -14.3586099084       -1.2888825851        5.0597324917
 H       -17.1365304422        0.1897942932        6.9854814842
 H       -17.5543313042        0.5256556772        5.3792066786
 H       -17.0825633300        1.7952356534        6.4637310770
 Na       -8.9562856309        3.9963104430       -2.3944018113
