117

 C       -14.7739982967        1.4028696366        8.3419878091
 C       -14.4894189889        0.4591183811        7.2411186170
 O       -13.5490383901       -0.2969604187        7.2851582198
 C       -15.3974255921        0.4740637599        5.9440851623
 C       -14.5882206395        1.6916934779        5.2031612359
 O       -14.8333346477        2.8387974582        5.5070010733
 C       -13.3949655451        1.3517978851        4.2648690531
 C       -12.4712862680        2.6291698260        3.9517912729
 C       -11.7897697165        2.5968522868        2.5627773683
 O       -11.6381054453        1.5721183695        1.9044645599
 C       -10.9981520019        3.8655420189        2.0603089737
 C       -11.1240063962        4.1711477070        0.4787611907
 O       -10.1586517792        4.2253832928       -0.2565461382
 C       -12.5894377164        4.2652485520       -0.0321404645
 C       -12.6352665863        4.5592442464       -1.5526638897
 C       -12.5808628858        6.1112566230       -1.9218277671
 O       -12.6984958166        6.8771368241       -1.0140041140
 C       -12.4048660527        6.5176189078       -3.4332030312
 C       -10.9121977322        6.4118837434       -3.6531205427
 O       -10.5383706964        5.2501704521       -3.8790428303
 C       -10.0281914822        7.5655925075       -3.3712064429
 C        -9.4210199642        7.2508431798       -1.9909047023
 C        -8.6676947561        8.4432212475       -1.4165946672
 O        -8.5977439302        9.4908504225       -1.9784901185
 C        -8.1055241106        8.1575833449        0.0240620195
 C        -6.9881484072        7.0032981503       -0.1337003856
 O        -7.1577178340        6.0403879389        0.6001520730
 C        -5.8230745165        7.0593897670       -1.1229546346
 C        -5.0458285368        5.7403396146       -1.2761408882
 C        -5.9267368324        4.7496118407       -2.1304392900
 O        -7.0571984423        5.1017329695       -2.4610410546
 C        -5.2312928164        3.4912780733       -2.7820537987
 C        -6.2449310482        2.5554647156       -3.5777541968
 O        -7.3176354211        2.9624264925       -3.9894966396
 C        -5.7355797443        1.1558799617       -3.9168872695
 C        -6.7540854249       -0.0036836728       -3.5224201771
 C        -6.8610057117       -0.2188742495       -1.9647808229
 O        -5.9019356333       -0.1090286306       -1.2588298937
 C        -8.3079738004       -0.5340956174       -1.2772171131
 C        -9.0432365459        0.7965101602       -1.5544461715
 O        -8.4845292960        1.8679218777       -1.4687442541
 C       -10.5738099119        0.7597068541       -1.8585929461
 C        -9.1129558956       -1.6871286480       -1.9658484147
 C        -8.0748750744       -0.7807404813        0.2018395566
 C        -4.2070122203        4.1485900105       -3.8136824643
 C        -4.4432066105        2.6423342680       -1.7379171212
 C        -7.3996127450        9.5232487633        0.4278492390
 C        -9.2071312221        7.8720978549        1.0734550002
 C       -13.1374909961        5.4760980540       -4.3750978841
 C       -13.0728618083        7.9084277432       -3.7706560291
 C       -11.3143110788        5.2316889866        2.8360049656
 C        -9.4793926916        3.4704788178        2.2864788157
 C       -15.3147423138       -0.8140420758        5.1700576939
 C       -16.9047327008        0.9035623997        6.1282115653
 H       -15.7698196331        1.2805263877        8.5883479568
 H       -14.6253264291        2.4883396353        8.1333135292
 H       -14.2215731933        1.2648603126        9.2184251498
 H       -13.8524265399        0.9989423011        3.2860918718
 H       -12.7741587516        0.5686464414        4.7081242543
 H       -11.8496505792        2.9265710715        4.8458763972
 H       -13.0679220449        3.4947591123        3.8761718437
 H       -13.0407102434        5.0616479200        0.5080481271
 H       -13.0354978082        3.2711430575        0.1245408751
 H       -13.6578393084        4.2262387166       -1.9314374595
 H       -11.7922076696        4.0777471332       -2.0911254811
 H       -10.4545755228        8.5631674399       -3.4264880373
 H        -9.1777701934        7.5685661868       -4.0552454470
 H        -8.7496869736        6.3985415604       -2.1439018372
 H       -10.2485432031        7.0721372518       -1.2760136357
 H        -5.1679072612        7.9338300514       -0.7211160230
 H        -6.2958566410        7.3643224943       -2.0834048646
 H        -4.7770847446        5.2822284025       -0.2794325343
 H        -4.0512570183        5.8831573167       -1.6946549577
 H        -4.7660924463        1.0553589954       -3.4120406612
 H        -5.5786081632        1.0041266137       -5.0290935712
 H        -6.3676939763       -0.9305300338       -3.9371093536
 H        -7.6754876574        0.2260407126       -3.9882874650
 H       -11.0912795939       -0.0318376871       -1.2656869152
 H       -10.8303843059        0.5250085802       -2.9215163078
 H       -11.0463629779        1.7171667373       -1.5794399489
 H        -9.5589422372       -1.2578337799       -2.9309947173
 H        -9.8624035038       -2.0042921245       -1.2680389643
 H        -8.4810913540       -2.5122365534       -2.1676119790
 H        -7.5830591504       -1.7077187404        0.4362169273
 H        -9.0419808577       -0.7214437906        0.8191412964
 H        -7.3699309507       -0.0430017491        0.6705168379
 H        -3.7087395095        3.3485964748       -4.4205944853
 H        -3.4358136361        4.6048983965       -3.2233670869
 H        -4.6772963344        4.7908032304       -4.4795045030
 H        -5.0293221069        2.0663520789       -1.1169381098
 H        -3.8025323502        3.2437297199       -0.9297003778
 H        -3.7124095440        2.0721073741       -2.2408128015
 H        -8.1679980448       10.2267621246        0.4680167744
 H        -6.6409435646        9.8460743609       -0.2909314011
 H        -7.0111406468        9.4046641281        1.4279404564
 H        -9.7818616946        6.9643413407        0.7877602300
 H        -9.9397202176        8.6857555557        1.1973757039
 H        -8.8916994234        7.7206966752        2.1186352387
 H       -13.2747860718        5.9696635765       -5.3624509509
 H       -14.1100823655        5.3108440051       -3.9843239702
 H       -12.7697336567        4.4506571530       -4.3907756901
 H       -13.2484112329        7.9309097696       -4.7872539493
 H       -12.5173804735        8.7879208979       -3.2846439149
 H       -14.0639439791        7.9686619222       -3.2787817693
 H       -11.2471234293        5.2001557622        3.9393395850
 H       -12.3647485019        5.6004594153        2.6439030908
 H       -10.6118498349        6.0102192613        2.5789905578
 H        -9.0749632644        2.8037935590        1.5782303092
 H        -9.3319887725        3.1211621718        3.3058946729
 H        -8.7553966540        4.3046236132        2.2566604717
 H       -15.7004806215       -0.7127422069        4.0951341835
 H       -15.9728960678       -1.5588067540        5.6974712832
 H       -14.2788593662       -1.1710424764        5.2010634027
 H       -17.3820079054        0.4523634996        6.9833086520
 H       -17.5206313764        0.6827254837        5.3211083825
 H       -16.9556395127        1.9561701610        6.3997898743
 Na       -8.9800294985        3.9178442824       -2.4606439951
