117

 C       -14.7707029917        1.4627654966        8.3792436091
 C       -14.5483538607        0.4208971343        7.2682886342
 O       -13.5347122204       -0.2823068605        7.2235178997
 C       -15.2979957937        0.5713780159        5.9083531955
 C       -14.5656501078        1.7338957927        5.2278048185
 O       -14.9663350682        2.8772088400        5.4814925834
 C       -13.3932459905        1.3906395588        4.3085792031
 C       -12.6147273688        2.6668447256        3.8468341118
 C       -11.8123929041        2.6180587211        2.5475769549
 O       -11.7016574622        1.5777553245        1.9010186853
 C       -10.9241741347        3.9065103083        2.0472774695
 C       -11.1571521288        4.1831275345        0.5479546572
 O       -10.1933905363        4.3098924158       -0.2494276812
 C       -12.5694467331        4.3324471754       -0.0227125094
 C       -12.5776832002        4.5536355903       -1.5400987939
 C       -12.5832539445        6.0749137776       -1.9101241967
 O       -12.6465622852        6.9849094964       -1.1121496051
 C       -12.4836468421        6.4387668125       -3.4743091221
 C       -10.9133112194        6.3380676239       -3.7176875834
 O       -10.4096423499        5.2464781779       -3.9688156597
 C       -10.0700810124        7.5352713860       -3.3109137038
 C        -9.2997222942        7.1425147348       -1.9610748779
 C        -8.7018283649        8.4646298814       -1.3803610567
 O        -8.5512273575        9.4934737106       -1.9897245269
 C        -8.0601159631        8.2469698101       -0.0111896218
 C        -7.0586162862        7.0899702314       -0.0281953004
 O        -7.1538511201        6.1644785992        0.7153111552
 C        -5.8713776763        7.0621584007       -1.1297556129
 C        -5.2470771231        5.6916830323       -1.2229358148
 C        -5.9495159095        4.7386457280       -2.1481373768
 O        -7.1155821333        5.0084187390       -2.3982569182
 C        -5.2429710596        3.4589179155       -2.7650681413
 C        -6.1836493819        2.4909593866       -3.5800246917
 O        -7.2847149509        2.8182410943       -3.9545092757
 C        -5.8186763902        1.0369438625       -4.0148241553
 C        -6.8884472559        0.0033577109       -3.4656164922
 C        -6.8089302905       -0.2405568506       -1.9470373724
 O        -5.8685123147       -0.1004006891       -1.2525382344
 C        -8.2980686027       -0.5473644754       -1.2861657296
 C        -9.0531115885        0.7497699899       -1.4959756967
 O        -8.3603378743        1.7521961829       -1.4939731233
 C       -10.5649625401        0.8151335479       -1.6820122973
 C        -8.9828867139       -1.7570070923       -1.9618637066
 C        -8.2375344054       -0.7460742797        0.2670089330
 C        -4.2388740997        4.0459786175       -3.8241215471
 C        -4.4588459258        2.7403495753       -1.6922451610
 C        -7.2700742322        9.5759213207        0.4976008168
 C        -9.1412493578        7.9305694266        0.9875840137
 C       -13.1393360012        5.4073491175       -4.4667535229
 C       -13.1066742751        7.8554855681       -3.6865485992
 C       -11.2982764957        5.1428665354        2.7969640418
 C        -9.4792092742        3.4668267980        2.1827199969
 C       -15.1879933250       -0.7257873814        5.0747696224
 C       -16.7386171601        1.0578463217        6.1442196302
 H       -15.7647959712        1.5574269879        8.7979830221
 H       -14.5579205491        2.4204598249        7.9586136906
 H       -14.0693423612        1.4682865810        9.2067290301
 H       -13.8798026505        0.8756790865        3.4923564371
 H       -12.6852685377        0.7741994411        4.7644904920
 H       -11.8410436347        2.8589874820        4.6535512999
 H       -13.1542953883        3.6093488682        3.9405355825
 H       -12.9262172967        5.2813693000        0.4470959362
 H       -13.1593443280        3.3870193860        0.1979359182
 H       -13.5109953583        4.1594224827       -1.9796939311
 H       -11.6409775453        4.1513606579       -2.0478491412
 H       -10.5365951866        8.5362721231       -3.1593707801
 H        -9.3408447654        7.7744489695       -4.0599919846
 H        -8.4523943151        6.4013235745       -2.1436647197
 H       -10.0651695575        6.8177341713       -1.2542103703
 H        -5.0405921136        7.6720371933       -0.6400136421
 H        -6.1570348296        7.4831557564       -2.0541294828
 H        -5.1703933510        5.2897982825       -0.2204928002
 H        -4.1500675934        5.8081643794       -1.4639510383
 H        -4.7693681251        0.8416889387       -3.6919286535
 H        -5.9142253320        0.9068525615       -5.1193713643
 H        -6.7904929996       -0.9419613444       -3.9908632584
 H        -7.8514614641        0.4891499853       -3.7324490216
 H       -11.1993554669       -0.0097677863       -1.3028156692
 H       -10.4943253862        0.6123311791       -2.8272913898
 H       -11.0279354049        1.7660662331       -1.5226984350
 H        -9.1297610596       -1.5141602134       -2.9769791017
 H        -9.9470115353       -1.9696366413       -1.4248705066
 H        -8.2974717545       -2.6309643816       -1.8506093906
 H        -8.0948036673       -1.7648062534        0.5597946760
 H        -9.1979274865       -0.3750446198        0.7608742951
 H        -7.4206991098       -0.2818074080        0.7790377158
 H        -3.8667816519        3.2411294205       -4.3716277380
 H        -3.3500344064        4.4985890290       -3.3317810156
 H        -4.8220498542        4.6837532945       -4.5658374946
 H        -5.0714732027        2.1783111117       -1.0002686579
 H        -4.0472460390        3.3868132269       -1.0168354075
 H        -3.5495566635        2.2081422302       -2.0784942502
 H        -7.9196902712       10.4245128747        0.3874152718
 H        -6.3559376740        9.6664051651        0.0391303979
 H        -7.1307508553        9.4220725283        1.5402528961
 H        -9.8939519045        7.2833838235        0.5533372661
 H        -9.6648037168        8.8162634580        1.2963724030
 H        -8.8446400978        7.5484824760        1.8972463340
 H       -12.9391993302        5.8527829371       -5.4529003770
 H       -14.2059773626        5.2300123696       -4.4171231075
 H       -12.7610983974        4.4721110037       -4.3610433436
 H       -13.3902667994        7.9843920938       -4.7525692795
 H       -12.5284261253        8.6385494939       -3.1931871683
 H       -14.0004643360        7.9089159662       -3.0524306397
 H       -11.0659838936        5.0946401592        3.9046450265
 H       -12.3810537154        5.3509515675        2.7567005112
 H       -10.7506689666        6.0344002170        2.4976549403
 H        -9.4328005839        2.4824720817        1.7452864774
 H        -9.2098691675        3.3653877968        3.2432003528
 H        -8.6220748309        3.9460051553        1.7438890013
 H       -15.3778704824       -0.6416327117        4.0091789337
 H       -15.9350210016       -1.4014505879        5.4877686345
 H       -14.1855379372       -1.1343121286        5.2924950894
 H       -17.2521273337        0.5285520332        6.9230382369
 H       -17.3039842504        0.9317771546        5.2312017118
 H       -16.8103041620        2.0828095939        6.5370678727
 Na       -9.1061175840        3.8526138649       -2.5520232105
