117

 C        -1.0908327547        4.2334445399        4.6891943824
 C        -1.8529814596        5.2214155345        5.5863546785
 O        -2.0709451800        5.0798062871        6.7511907953
 C        -2.4122624357        6.4337724245        4.8615447249
 C        -3.7842021128        6.1313626900        4.1660635606
 O        -3.6475060351        5.4838869646        3.1735919493
 C        -5.2425364901        6.2516718908        4.7623562892
 C        -6.2986368507        5.2168637954        4.4361291154
 C        -7.7864971908        5.7477930944        4.4353230869
 O        -8.0147472005        6.9058172178        4.6475640982
 C        -9.0226366748        4.7500835989        4.2534793513
 C       -10.1803748262        5.7953709232        3.8314479024
 O       -11.1471530215        6.0463730120        4.4780159213
 C        -9.9843869810        6.5053229169        2.4948398760
 C       -11.3274337345        6.9726931784        1.9510308830
 C       -11.9330796891        5.8940993484        1.0184140905
 O       -11.1516106686        5.1477260546        0.5101756972
 C       -13.4475050788        5.9237800921        0.6306850537
 C       -13.8593879924        4.4559621734        0.2094234536
 O       -13.5821362023        4.0743576859       -0.8778308927
 C       -14.6314428788        3.6376214881        1.2023152869
 C       -14.8454953401        2.1295219184        0.7932936886
 C       -13.5787199672        1.2420480715        0.2704632482
 O       -12.4155273015        1.4562337402        0.6287517237
 C       -13.9833992082        0.1307183032       -0.8194586126
 C       -13.1266985519        0.6185417026       -2.2501786838
 O       -12.0428814663        1.1374202639       -2.0708983880
 C       -13.7426705482        0.5175258631       -3.6170552410
 C       -12.6266485581        0.3832902278       -4.6788517163
 C       -12.8910932416        1.3071020899       -5.9213410154
 O       -13.9425306000        1.4993099515       -6.4449195117
 C       -11.5195747282        1.6854913295       -6.6928528172
 C       -10.4286998176        2.1146329704       -5.6967468533
 O        -9.8772039345        1.3181212602       -4.9335349651
 C       -10.0657451668        3.6287927030       -5.7024276385
 C        -8.8553213785        3.8858886914       -4.8158280045
 C        -9.1065465620        3.3652172730       -3.3782699839
 O       -10.1544032918        3.6845815370       -2.8529311403
 C        -7.9448485086        2.7646838195       -2.5121559273
 C        -8.5671229364        1.6130116540       -1.7708665884
 O        -9.2546332875        1.8025164348       -0.7716601966
 C        -8.4041392767        0.1741833266       -2.1391743525
 C        -6.8352173119        2.2240853720       -3.4492657421
 C        -7.4617816412        3.8902910142       -1.5352726128
 C       -11.0889522451        0.3643478971       -7.4944884162
 C       -11.8707772033        2.7280310898       -7.7680883151
 C       -13.3462959953       -1.1360567561       -0.2174123287
 C       -15.4240459659        0.1095729560       -1.2009146635
 C       -14.3715667191        6.6032960592        1.6216012300
 C       -13.6605555445        6.8372348313       -0.6231070338
 C        -8.5927367911        3.6261023491        3.3088426037
 C        -9.3460543707        4.3327189627        5.7955927639
 C        -2.5228472416        7.6275679716        5.9145358381
 C        -1.5313627265        6.9785571453        3.6222618553
 H        -1.6654818388        3.9672096028        3.7852800902
 H        -0.9071060924        3.2536526541        5.0918876435
 H        -0.2752024857        4.6507672240        4.1784483869
 H        -5.5281014286        7.1659794215        4.3385061149
 H        -5.0681599508        6.3122851336        5.8947787888
 H        -6.3529219888        4.4012702823        5.1032874724
 H        -6.0579223778        4.8197973918        3.5004335826
 H        -9.5630211019        5.8517398318        1.7380663553
 H        -9.2803511975        7.3823258458        2.6830368131
 H       -11.2462476300        7.9291557932        1.4204768373
 H       -11.9926596572        7.1289877787        2.7738906738
 H       -15.5600055286        4.0767213820        1.2594766509
 H       -14.0181494466        3.7286767192        2.1061970035
 H       -15.6245503188        2.1991816889        0.0327888789
 H       -15.1945410146        1.7425479963        1.6909784765
 H       -14.2655894480        1.4753361185       -3.8076357608
 H       -14.6650507708       -0.1472347805       -3.7281658909
 H       -12.6787022278       -0.6614363035       -5.0940257455
 H       -11.6068418839        0.4096336838       -4.1850788421
 H       -10.9169911147        4.1742496146       -5.3908566430
 H        -9.9179591619        3.9541973532       -6.6939003411
 H        -8.6255088530        4.9425392273       -4.6178353081
 H        -7.9356924781        3.4199107223       -5.2397867695
 H        -7.3208883992       -0.0880683318       -2.4053177347
 H        -9.0779664212        0.0258020338       -2.9251282808
 H        -8.5508324107       -0.5189777339       -1.2909350819
 H        -6.1532117330        2.9778572061       -3.6436840774
 H        -7.1199641469        1.7018495420       -4.2921604543
 H        -6.1786972731        1.5521793500       -2.8214348726
 H        -8.1691840437        4.0618392747       -0.6384545658
 H        -7.4871172289        4.8336107782       -2.0600689504
 H        -6.3492057614        3.8114817909       -1.3008662635
 H       -11.8211343070        0.2403914273       -8.2246249395
 H       -10.9973331443       -0.5144089388       -6.8448044711
 H       -10.1356876515        0.6389365412       -8.0141845843
 H       -11.8387051374        3.7600304970       -7.3598507974
 H       -12.8966292695        2.6419035149       -8.0991183717
 H       -11.1153264475        2.5530396570       -8.5820120963
 H       -13.6845686960       -1.2297037870        0.8019815202
 H       -12.2660603985       -0.9816728178       -0.1467496539
 H       -13.6354830574       -2.0602291087       -0.7277622560
 H       -16.0598685516        0.0797216404       -0.3143922238
 H       -15.5852068727       -0.8228909730       -1.7543063636
 H       -15.7781547726        0.9441380805       -1.8176192295
 H       -15.4403119380        6.3842139425        1.5130653136
 H       -14.2316659732        7.6185039863        1.6372912724
 H       -14.1366038506        6.1378981437        2.5953814323
 H       -13.1973704380        6.4975779711       -1.5349678601
 H       -13.4685965598        7.8836740023       -0.3901175698
 H       -14.7576225437        6.8514206086       -0.8778537647
 H        -8.3443159861        2.6743414517        3.8159914926
 H        -7.7579049349        4.0096632593        2.6606817905
 H        -9.3546429699        3.3184378410        2.5953223640
 H        -8.9171182616        5.1650634924        6.3673683051
 H        -8.8372529986        3.3643403358        6.0093730039
 H       -10.4398953073        4.2515000352        5.9700366226
 H        -3.0127052769        7.3233967738        6.8200696606
 H        -3.0983806578        8.5189126753        5.5375371391
 H        -1.5482477158        8.0295515719        6.2314597372
 H        -1.8253905931        6.5414256437        2.6920981869
 H        -0.4829553012        6.7600456884        3.7732534016
 H        -1.7102912209        8.0537413707        3.6252306142
 Na      -10.9847320585        3.1069177344       -0.8048351305
