117

 C       -14.7076436036        1.4556682108        8.4357177051
 C       -14.3882785116        0.5926136478        7.2309601595
 O       -13.5056849257       -0.2745794267        7.2263137775
 C       -15.1667189852        0.8219943712        5.8905043230
 C       -14.4696028075        1.9869236137        5.1240314240
 O       -14.9335650626        3.1355778848        5.1430716901
 C       -13.3124663188        1.6836682442        4.1881357616
 C       -12.7551037673        2.9617365406        3.6312607308
 C       -11.8849666409        2.7254052568        2.3801088090
 O       -11.9226966688        1.7416765349        1.6248588638
 C       -10.8194998869        3.9060658186        1.8890916531
 C       -11.0819321631        4.1556691503        0.3832271629
 O       -10.1686153728        4.1533416390       -0.4555445800
 C       -12.5754425098        4.4187235473        0.0721857005
 C       -12.8597089543        4.5631907050       -1.4641009414
 C       -12.6701159139        5.9899830648       -2.0081143060
 O       -12.5209442562        6.8116400382       -1.1401637040
 C       -12.4847056154        6.3087343048       -3.5782277887
 C       -10.9629485917        6.2546560537       -3.6606435216
 O       -10.3304011953        5.2404932195       -3.9967689326
 C       -10.1506293779        7.5243585875       -3.2869716991
 C        -9.2147377083        7.3211870998       -2.0383570778
 C        -8.5789664394        8.5048344398       -1.3570510478
 O        -8.4000152845        9.5444605850       -1.8969357900
 C        -7.8626674441        8.3457794851        0.0200538035
 C        -7.0104025506        7.0248888642        0.1406599921
 O        -7.0990971239        6.3186869145        1.1059134048
 C        -5.9296343776        6.8567411900       -0.9874091417
 C        -5.3248097571        5.4808898492       -1.1442583232
 C        -6.1469184451        4.6223348546       -2.0723289520
 O        -7.3325647203        4.8460354167       -2.2787350722
 C        -5.4266131615        3.3657690952       -2.7088554842
 C        -6.3943823670        2.3577594678       -3.4521556960
 O        -7.4765146112        2.6823534915       -3.8831690047
 C        -5.7360284040        0.9952579745       -3.7442443158
 C        -6.6766022554       -0.1612239433       -3.3440670485
 C        -6.8296681707       -0.2441163845       -1.8497220606
 O        -5.8820628751       -0.2904284525       -1.1475180983
 C        -8.2696425667       -0.5640884260       -1.2280925294
 C        -9.1218230260        0.7400005341       -1.4034960581
 O        -8.5413115524        1.7763282372       -1.6150220990
 C       -10.6216527625        0.7139331086       -1.3330419521
 C        -8.9975265800       -1.7792193374       -1.9443645728
 C        -8.0923056330       -0.7362580043        0.3578349348
 C        -4.4617301367        3.8716955195       -3.8834790944
 C        -4.5231521186        2.7102972242       -1.5772618690
 C        -6.9997924450        9.5974022544        0.3088281389
 C        -9.0062789063        8.3742333916        1.0761703100
 C       -13.0490717215        5.1797330630       -4.4018196882
 C       -13.0808744013        7.6945795515       -4.0272064859
 C       -11.0702169922        5.1903942440        2.6609504560
 C        -9.4343911999        3.3823208238        2.1817349924
 C       -15.0099666685       -0.4648674541        5.0088473364
 C       -16.6401872000        1.1491039090        6.1824369838
 H       -15.5353488853        1.0190676244        8.9432981877
 H       -14.9951748952        2.5279240522        8.2704879028
 H       -13.8550924403        1.5538105574        9.1038940809
 H       -13.5568189116        0.9811063716        3.2840966310
 H       -12.5262212208        1.1746408798        4.7886544959
 H       -12.1369803938        3.6011188326        4.3360956358
 H       -13.5827763132        3.5896554360        3.4396852702
 H       -12.8225072157        5.3088285704        0.5705953845
 H       -13.1422246216        3.5524669156        0.4063431928
 H       -13.9295467414        4.3096797358       -1.6414977708
 H       -12.2408717639        3.8101661382       -1.9543989591
 H       -10.6653209610        8.4858156462       -3.2098966148
 H        -9.5304764378        7.7241530370       -4.1366957109
 H        -8.4187500804        6.6163171237       -2.2960083242
 H        -9.8325609914        6.8711017843       -1.2650011823
 H        -5.0868365145        7.5768547590       -0.5721016133
 H        -6.2846867346        7.2456639943       -1.9475087623
 H        -5.2608969958        4.9725150180       -0.1491415184
 H        -4.2905659257        5.5504148982       -1.4660077618
 H        -4.8390088747        0.8513688272       -3.1624328700
 H        -5.5078006350        1.0849053635       -4.8210708408
 H        -6.2458645859       -1.1131917150       -3.6535249839
 H        -7.6611493145       -0.0282206950       -3.7119722296
 H       -11.0121758104        0.0459442081       -0.5715194042
 H       -11.0844220557        0.2947851081       -2.2702652067
 H       -10.8849223959        1.7161804743       -1.2034290235
 H        -8.9776607903       -1.5793272316       -3.0261368396
 H       -10.0291488248       -1.7443782019       -1.6458443152
 H        -8.5005166595       -2.6981583487       -1.7444352475
 H        -7.8015338734       -1.6986531857        0.6607159276
 H        -8.9939157738       -0.4138115814        1.0070570618
 H        -7.2663261274       -0.1352092679        0.7367514442
 H        -3.7275097651        3.1684808463       -4.2088501723
 H        -3.9011240526        4.6951785815       -3.4761631297
 H        -5.1169270003        4.1850327912       -4.6822452384
 H        -5.0535245947        2.4653560310       -0.6799012202
 H        -3.7340032576        3.2966697946       -1.1739540680
 H        -3.9234267122        1.8727622475       -1.9754699341
 H        -7.6314606969       10.4725895777        0.1034178536
 H        -6.1199782623        9.4557513169       -0.3378172954
 H        -6.6326678647        9.6569514420        1.3904082643
 H        -9.8480799629        7.6693239700        0.8058723495
 H        -9.5380670015        9.3584874809        1.1763602900
 H        -8.6419974407        8.2337950440        2.0895533718
 H       -12.9615251957        5.3828985708       -5.5449055149
 H       -14.1507322300        5.1160828316       -4.2458714012
 H       -12.6332241971        4.1923261472       -4.2449229926
 H       -12.3941090223        8.0780758576       -4.7313435364
 H       -13.2175364481        8.4210638132       -3.1862330195
 H       -14.0807520714        7.5846989591       -4.4081723270
 H       -10.9584495960        5.0797652471        3.7401420714
 H       -12.0723597826        5.5689003912        2.4732968481
 H       -10.4315010122        5.9642311753        2.3816059425
 H        -9.2844029497        2.3783112098        1.8711630955
 H        -9.1321204383        3.3819195396        3.2445481641
 H        -8.6262088818        3.9333980106        1.6538458274
 H       -15.6063339788       -0.2481207486        4.1079988107
 H       -15.5149109998       -1.3053813927        5.4724258186
 H       -13.9973353480       -0.6966443889        4.7361752059
 H       -17.1830151293        0.4465145856        6.8004889632
 H       -17.1483722717        1.3440153013        5.2758918395
 H       -16.6845393828        2.0600756664        6.8245996372
 Na       -9.4088784873        3.6985613383       -2.6236088858
