117

 C       -14.6031028840        1.5166822794        8.2843144030
 C       -14.2293094441        0.7579082488        7.0849315291
 O       -13.2819065801       -0.0441266416        7.0922832685
 C       -15.1536871633        0.8834239577        5.8179113048
 C       -14.4566754797        2.1211048685        4.9789460934
 O       -14.9253124281        3.2529288019        5.1211582176
 C       -13.2206062328        1.8465536727        4.0203710031
 C       -12.6170434436        3.1786474782        3.6883915828
 C       -11.8632412386        2.9698339269        2.3349369338
 O       -12.0736119239        1.9088865538        1.7148567026
 C       -10.7734212679        3.9690500050        1.7327504181
 C       -11.1508468768        4.1706237921        0.2512997539
 O       -10.4192636945        3.9923063134       -0.7222224655
 C       -12.6869002605        4.3687816385       -0.0342814021
 C       -12.9341064485        4.6000098545       -1.5811213200
 C       -12.6589478942        6.0455282876       -2.0498164475
 O       -12.6099000547        6.9977950801       -1.3170007226
 C       -12.3704704810        6.2073635374       -3.6227064711
 C       -10.7789305866        6.3494405292       -3.6764733031
 O       -10.0874645235        5.3671423724       -3.8941199448
 C       -10.1611828773        7.5573283147       -2.9948605973
 C        -9.5167628723        7.3848281634       -1.6427406578
 C        -8.5489684922        8.5076760952       -1.4018927494
 O        -8.3942084685        9.3930329102       -2.1718918421
 C        -7.7863527474        8.5322691395       -0.0318394595
 C        -6.9181967809        7.1388099025        0.0263135415
 O        -7.3050044001        6.3877205045        0.8939369451
 C        -5.7815481881        6.7885524798       -0.9495839684
 C        -5.3489522750        5.3266711868       -0.9162813994
 C        -6.2539027140        4.4518517017       -1.8664826080
 O        -7.3980139100        4.8201357188       -2.0449850031
 C        -5.5313201924        3.2312834375       -2.5954621686
 C        -6.4600341206        2.2744372884       -3.3742123486
 O        -7.5746909331        2.5055570274       -3.7704785932
 C        -5.8882417513        0.9015250621       -3.6341267465
 C        -6.8060667812       -0.3152687698       -3.2648461528
 C        -6.9011130692       -0.4509528382       -1.7532101396
 O        -5.9161305795       -0.2859805868       -1.1257137620
 C        -8.3150719718       -0.7066169116       -1.0625173164
 C        -9.2252834953        0.5723705091       -1.2578897509
 O        -8.6526080407        1.6050777048       -1.5214200079
 C       -10.7723967045        0.4871793884       -0.9982030184
 C        -8.8550840290       -1.9820272591       -1.7802792627
 C        -8.1315663074       -0.9098280995        0.4720167864
 C        -4.6713399096        4.0170297979       -3.6561853921
 C        -4.5992056406        2.5058241276       -1.6274413894
 C        -6.7783571464        9.7019559263        0.0619259845
 C        -8.7689002740        8.6297229651        1.0821529875
 C       -12.8383003844        5.0361021790       -4.3924047029
 C       -13.2061307853        7.5426791221       -4.0097552342
 C       -10.8248840992        5.3347899414        2.4337107600
 C        -9.3449786438        3.4368309980        1.8394142854
 C       -15.1692991944       -0.4483683055        5.0874125904
 C       -16.6734140516        1.2231497284        6.2093245376
 H       -15.5085644168        1.0771934760        8.6511504729
 H       -14.9406266100        2.5955617454        8.0860625421
 H       -13.8568072089        1.6250374138        9.0641589399
 H       -13.5305451592        1.3336066954        3.1422337331
 H       -12.4187971559        1.2180718108        4.3682509085
 H       -12.0341524350        3.6468780072        4.4954851632
 H       -13.5047766632        3.8334377926        3.4381829066
 H       -13.0435132444        5.3349704370        0.4478987438
 H       -13.2263653048        3.4701659698        0.3640108431
 H       -13.9772506332        4.3317281697       -1.8125706604
 H       -12.3364793275        3.9360328397       -2.1862557830
 H       -10.9313649746        8.3349471764       -2.8907217400
 H        -9.4114892179        8.0511170384       -3.6678254351
 H        -8.9512434475        6.4719173436       -1.6395526178
 H       -10.2706237360        7.2928261070       -0.8247984975
 H        -4.9729972191        7.4020654302       -0.6212861930
 H        -6.0194725765        7.1020239171       -1.9159845393
 H        -5.4673662748        4.9261558726        0.1220622137
 H        -4.3211103552        5.2974491191       -1.1539054871
 H        -4.9963762570        0.8256979959       -3.0699469770
 H        -5.6824518245        0.8089735771       -4.6943980833
 H        -6.2630558930       -1.2305571070       -3.6790370819
 H        -7.7979511203       -0.1918091336       -3.7336322065
 H       -10.7375857745        0.1174011850        0.0436507795
 H       -11.3743807597       -0.2668424582       -1.4766952860
 H       -11.1825280034        1.4909369842       -1.0496073314
 H        -9.3640090362       -1.8221945401       -2.8109476453
 H        -9.5903779866       -2.4215072137       -1.1427630204
 H        -7.9903516130       -2.5865942944       -1.8614539104
 H        -7.3018880833       -1.4198569472        0.7381730758
 H        -8.9743857373       -1.4428984494        0.9538534673
 H        -8.1297620674        0.0208483389        0.9960324030
 H        -4.1230294538        3.2718175930       -4.3425014424
 H        -3.9172634924        4.5520155699       -3.0360715663
 H        -5.2956779434        4.7482518367       -4.1619952430
 H        -5.1020768226        1.8837141982       -0.8461456880
 H        -3.9594159972        3.1962580822       -1.0357663239
 H        -3.8814483170        1.8013421649       -2.1086541524
 H        -7.2326836701       10.5222834182        0.5024243559
 H        -6.2929519513        9.9315587138       -0.8777814707
 H        -6.0411839181        9.3458422855        0.7697831450
 H        -9.2686541500        7.7033472855        1.2031058831
 H        -9.5380396018        9.3401697070        0.9029277545
 H        -8.3213841392        8.8429199866        2.0313214949
 H       -12.8584173961        5.2259893691       -5.4830158510
 H       -13.8046595281        4.7517799101       -4.1684853453
 H       -12.1467132353        4.2222865177       -4.3721962222
 H       -13.0513624807        7.8500447136       -4.9813769331
 H       -12.7985804944        8.4463065927       -3.4110157780
 H       -14.2774340302        7.3516485709       -3.7993215158
 H       -10.5747405453        5.2128899370        3.4881573871
 H       -11.8760962455        5.7412722722        2.3773679725
 H       -10.1959176798        6.1192964203        2.0062771563
 H        -9.0647481825        2.7506771543        1.0766818881
 H        -9.0691717667        2.8404810880        2.6983361348
 H        -8.6747663044        4.3162351224        1.7827422576
 H       -15.5127417694       -0.2874341089        4.0478999018
 H       -15.8879398046       -1.0769001455        5.6021797768
 H       -14.2264274374       -0.9205658625        5.0803479985
 H       -16.9270181497        0.5257648611        7.0508338023
 H       -17.4082177031        1.1028621206        5.4281872979
 H       -16.8062399974        2.2665862990        6.5959907966
 Na       -9.1702066643        3.6805328654       -2.7205015033
