117

 C       -14.4234432359        1.6560934437        8.2366135860
 C       -14.0973829331        0.9501847716        7.0037739642
 O       -13.0141483423        0.3887204257        6.7765108328
 C       -15.1353621386        1.0671336494        5.7802727172
 C       -14.4584314722        2.2787046771        4.9529993195
 O       -14.8596882056        3.4340608622        5.1127988804
 C       -13.2397950487        1.9091655619        4.1736463030
 C       -12.2989561915        3.0136414345        3.7096260532
 C       -11.7764817664        2.7958286299        2.2480740324
 O       -11.9504350366        1.7315509708        1.6392153079
 C       -10.8948225026        3.9885377456        1.6422177787
 C       -11.3401075449        4.1980677742        0.2128841879
 O       -10.5679483412        4.0915132357       -0.7280929587
 C       -12.9047447379        4.4541248430       -0.0850457840
 C       -13.2537149969        4.5996790486       -1.5911615911
 C       -12.8491408450        5.9470699966       -2.1722499424
 O       -12.7989895722        6.8980148980       -1.4521350260
 C       -12.4091867169        6.2268500496       -3.6913540575
 C       -10.7574150220        6.4558124633       -3.5396666903
 O       -10.0837330391        5.4807031559       -3.8555404940
 C       -10.2579142138        7.7588540162       -3.0635514289
 C        -9.6902079314        7.7148928009       -1.6141456920
 C        -8.4205135507        8.5880194585       -1.4739485367
 O        -8.0184982033        9.2692165492       -2.3431760373
 C        -7.5961158692        8.6085889051       -0.1022752800
 C        -7.0463407772        7.1533375873       -0.0559236720
 O        -7.6260207126        6.3397994368        0.6419747707
 C        -5.7508896534        6.7698365000       -0.8401445940
 C        -5.3170917775        5.3392419195       -0.8543861767
 C        -6.1954368705        4.3889620974       -1.6959109442
 O        -7.3907337306        4.6003545176       -1.8012794569
 C        -5.4548759685        3.2627349614       -2.4895956999
 C        -6.4641352177        2.3025743838       -3.2165222729
 O        -7.4030134181        2.8393151999       -3.7819703866
 C        -6.0116390940        0.8148152288       -3.5995723566
 C        -7.0651727474       -0.2623393960       -3.1762038052
 C        -6.9588660099       -0.4679026989       -1.5912613498
 O        -5.9823412209       -0.2794728505       -0.9437023091
 C        -8.3584641617       -0.8954212083       -0.8962463317
 C        -9.3091676208        0.3088216458       -1.0177506429
 O        -8.8852716259        1.3616924445       -1.4634761392
 C       -10.7796899319        0.1041502405       -0.7522512321
 C        -8.9581115578       -2.2239641390       -1.5076515350
 C        -8.0662763555       -1.2785404590        0.5954904393
 C        -4.6026376167        3.9260378651       -3.6379067617
 C        -4.5047976080        2.4921495512       -1.5247753660
 C        -6.4740365481        9.5950695930       -0.2188286369
 C        -8.3780678361        8.8724067236        1.2647624424
 C       -12.6554150276        4.9778462470       -4.5761087660
 C       -13.1220250195        7.4675844730       -4.2663998910
 C       -10.9868794921        5.3534707960        2.4276622767
 C        -9.4799628354        3.4584417945        1.6290143124
 C       -15.1294832956       -0.1988038930        4.9226983769
 C       -16.6289896608        1.3084463759        6.0993663255
 H       -15.4179112215        1.4385263100        8.5650262137
 H       -14.4908981126        2.7357165096        8.0008467689
 H       -13.7550120947        1.5179984320        9.0400257874
 H       -13.5120112126        1.2659847572        3.3502974088
 H       -12.6133203641        1.2179371500        4.8124990912
 H       -11.3982978073        2.9905184663        4.2516273229
 H       -12.8325285763        4.0034602532        3.7789813288
 H       -13.1114450546        5.4587944369        0.4208880185
 H       -13.5403137166        3.7266610614        0.4001890183
 H       -14.3174531712        4.3309487047       -1.7788050345
 H       -12.7504006276        3.7492886691       -2.1424178664
 H       -11.0507869954        8.4688296776       -3.1728400981
 H        -9.4004427944        8.0312585715       -3.7068137563
 H        -9.3499448676        6.6808483068       -1.4489841514
 H       -10.4369668403        7.8179796385       -0.7795172040
 H        -4.9788169465        7.2425619092       -0.2601077420
 H        -5.6511101730        7.2619923404       -1.8794738738
 H        -5.3144625091        5.0237003802        0.2144568025
 H        -4.2666228480        5.3653622179       -1.2207037998
 H        -5.0154950296        0.6030610653       -3.1363400812
 H        -5.9197667742        0.7526268572       -4.7155448706
 H        -6.8620166502       -1.1859490540       -3.6625575065
 H        -8.0593369047        0.0337991713       -3.5022889123
 H       -10.9949467994        0.3402334157        0.3194801270
 H       -11.1642936100       -0.8756855592       -0.8821897912
 H       -11.3583766359        0.7962763260       -1.4327889929
 H        -8.8383786025       -2.2787563608       -2.6416393054
 H        -9.9624982894       -2.3718620283       -1.1974204008
 H        -8.3769677609       -3.0095200775       -1.0754755009
 H        -7.5077459956       -2.1928849237        0.7231773516
 H        -9.0392530089       -1.5741448757        1.0958747827
 H        -7.6767587545       -0.4147430858        1.2298421094
 H        -4.1161815118        2.9872798948       -4.0260878220
 H        -3.9396479180        4.6542706582       -3.2750954920
 H        -5.2220786085        4.3429252762       -4.3304767958
 H        -4.9119460055        1.5935734961       -1.1376450606
 H        -4.1357378448        3.1766891804       -0.7106836726
 H        -3.6706875861        2.0786734430       -2.0255928127
 H        -6.7677456341       10.5620317575       -0.5690245817
 H        -5.7473587469        9.1845621986       -0.9851302246
 H        -6.0044508540        9.6017912662        0.7731844760
 H        -9.1919612925        8.1570711498        1.4810493870
 H        -8.8441055321        9.8742173284        1.2317025746
 H        -7.7444477258        8.6884849798        2.1980654804
 H       -12.1599590851        4.9683678766       -5.5410843690
 H       -13.6922309759        4.9138000942       -4.8200721677
 H       -12.3215201497        3.9760363825       -4.1296567525
 H       -12.8740338806        7.8359198948       -5.2110565572
 H       -12.8298803579        8.3334490933       -3.5867606900
 H       -14.1991985104        7.2316408168       -4.3175890988
 H       -10.5827226371        5.1734708991        3.3877843628
 H       -12.0025716774        5.7344200138        2.4940574308
 H       -10.3672943799        6.1145753091        1.9260744862
 H        -9.4070880336        2.3690341393        1.5225617279
 H        -9.0951628905        3.5687268655        2.6367140022
 H        -8.7889704602        3.9725599884        0.9658090232
 H       -15.5758664724        0.0038987092        3.9260778934
 H       -15.6341368237       -1.0320338489        5.4397882362
 H       -14.1008920351       -0.5039104796        4.7807085832
 H       -17.1388610059        0.4688116383        6.5670165116
 H       -17.1604121892        1.4179525103        5.1613828428
 H       -16.7778037297        2.2486237848        6.5676975018
 Na       -9.3474044660        3.5814668451       -2.5901535729
