117

 C       -14.4432414683        1.6590536104        8.2460816870
 C       -14.0660957139        1.0889309164        6.8758440452
 O       -13.0112830253        0.5502412565        6.7272473678
 C       -15.0615511277        1.2312369370        5.7276134077
 C       -14.3612752359        2.2941897064        4.8201224919
 O       -14.6423118154        3.4460972350        4.9104835048
 C       -13.1220813514        1.8155176667        4.0275856567
 C       -12.2909735763        3.0670721258        3.6960303760
 C       -11.7763999719        2.8054020962        2.2532157669
 O       -12.0027275779        1.7793686568        1.6951321047
 C       -10.9664552318        4.0150737316        1.5350333185
 C       -11.5631639906        4.1339220682        0.0812763860
 O       -10.8025317787        4.2197589035       -0.8551760887
 C       -13.0238683535        4.3697627493       -0.0750881334
 C       -13.3217603083        4.6343603041       -1.6130441365
 C       -12.8606344126        6.0433736826       -2.1785576156
 O       -12.9584799644        7.0559513073       -1.5008936009
 C       -12.2851410849        6.2153775815       -3.6852972359
 C       -10.7715474397        6.3464029648       -3.4341017931
 O        -9.9431051928        5.4347961613       -3.4298061350
 C       -10.2913325637        7.8633782128       -3.0255343081
 C        -9.6114331451        7.7975581883       -1.6432337106
 C        -8.2534423508        8.5634306569       -1.6016991576
 O        -7.8751847213        9.2345939105       -2.5776759792
 C        -7.4926447198        8.4941338687       -0.2757002200
 C        -7.0825733813        7.0408839039       -0.0751497601
 O        -7.7236714998        6.1975320520        0.5151511341
 C        -5.7176243470        6.7666103828       -0.7325275377
 C        -5.2804069908        5.2519034818       -0.7612756544
 C        -6.1398499543        4.3688006852       -1.6204914156
 O        -7.3428942542        4.4981628345       -1.5737198554
 C        -5.4192218927        3.3183495117       -2.4996232692
 C        -6.4436130714        2.3615035518       -3.2515388090
 O        -7.4819379890        2.7977198161       -3.7155850887
 C        -6.0358971474        0.8178275022       -3.4920151428
 C        -6.9879016788       -0.2830624549       -3.0640939586
 C        -7.0396627966       -0.4493752702       -1.5122805655
 O        -6.0492794261       -0.4126164109       -0.7899280372
 C        -8.4326556805       -0.9450462815       -0.8313145311
 C        -9.5071865573        0.1607540350       -0.9900531997
 O        -9.1217589524        1.2207311094       -1.5027814535
 C       -10.9271329709       -0.0555099755       -0.5087739033
 C        -8.9625943156       -2.2696374066       -1.5884801602
 C        -8.1113104967       -1.1653764008        0.6781040442
 C        -4.4560853258        3.9985072270       -3.5848582732
 C        -4.5425130758        2.5221954247       -1.5153942965
 C        -6.2794107279        9.4800122532       -0.2884297345
 C        -8.4283761116        9.0107354762        0.8927051909
 C       -12.5114644291        4.8985852377       -4.5032613174
 C       -13.0471098604        7.4015746136       -4.3265026388
 C       -11.1569334207        5.3402418619        2.3038379170
 C        -9.4661605095        3.5817194610        1.5668883936
 C       -15.0142159634       -0.1389941037        4.9607553740
 C       -16.4786020523        1.6606436643        6.2067172804
 H       -15.3275137101        1.1825268098        8.7496789031
 H       -14.6237787321        2.6891731400        8.3467187992
 H       -13.6462506880        1.3252476960        8.9423396123
 H       -13.3335624390        1.3151234563        3.0657390425
 H       -12.5111983484        1.1330720232        4.5581373489
 H       -11.3764517667        3.2249738655        4.3647451262
 H       -12.9952510874        3.8755620808        3.6757100330
 H       -13.3485344090        5.1899497082        0.5748002037
 H       -13.6227453861        3.4538517195        0.2742981579
 H       -14.3687257454        4.4850500781       -1.8020271244
 H       -12.9357446792        3.7544624209       -2.1245673283
 H       -11.1498384719        8.5840212956       -2.9694573954
 H        -9.5258544614        8.1984401224       -3.7354479558
 H        -9.5777275191        6.7756623149       -1.2253336532
 H       -10.2009482447        8.2774377490       -0.8925937073
 H        -4.9613474197        7.3827909866       -0.2466127905
 H        -5.7808541675        7.1966202897       -1.6845715894
 H        -5.4093850787        4.8496657127        0.2347823375
 H        -4.2408118990        5.1873478147       -1.0708030365
 H        -5.0669453285        0.5656978192       -3.1021625679
 H        -5.9167593927        0.7818056153       -4.5620117035
 H        -6.8069197439       -1.2589874289       -3.6193564251
 H        -8.0480287878       -0.0354963977       -3.2984396708
 H       -11.2206605568        0.5586724203        0.3397200170
 H       -11.0510252313       -1.1081751320       -0.1430596062
 H       -11.5995387666       -0.0426746686       -1.3570231087
 H        -9.5841594479       -1.9671487863       -2.3647750085
 H        -9.4402863630       -2.9740682026       -0.8469454142
 H        -8.1280567365       -2.8665231829       -2.0609779472
 H        -7.6360477766       -2.1717688001        0.7321453475
 H        -8.8517701199       -1.2498344652        1.3879446148
 H        -7.4195369746       -0.4436465287        0.9947175581
 H        -3.8170174837        3.2441622344       -3.9499854770
 H        -3.9919924893        4.8621334267       -3.0406867214
 H        -5.1556305384        4.4684276856       -4.3560383579
 H        -5.1371497771        2.0303113129       -0.7548095353
 H        -3.6382159748        3.1756083341       -1.1324191986
 H        -4.1619776139        1.6150058263       -1.9559738340
 H        -6.7203488223       10.4759735183       -0.2113557119
 H        -5.8480112941        9.5547534739       -1.2243222806
 H        -5.6200182173        9.3145129033        0.5035576292
 H        -9.3499075823        8.4961880601        1.1276930147
 H        -8.6232800260       10.0581116947        0.7271416411
 H        -7.8929139584        8.9057853122        1.7862132803
 H       -12.4691666654        5.0610728678       -5.5613314146
 H       -13.4979505789        4.4269650729       -4.3103194039
 H       -11.8168854483        4.1485685937       -4.2594336633
 H       -12.4236388283        8.1241791723       -4.9807400510
 H       -13.4512015032        8.0489987744       -3.6250689997
 H       -13.7249146187        6.9762517407       -5.0655021418
 H       -10.8609109056        5.1703404975        3.3895073449
 H       -12.2192474964        5.6525945696        2.2274367119
 H       -10.5207965531        6.1288134162        1.8659445287
 H        -9.3326134781        2.6662181694        0.9711084129
 H        -9.0317882812        3.4253042333        2.5724265613
 H        -8.8702262160        4.3325478106        1.0573086127
 H       -15.5452262333        0.0288460344        4.0224448536
 H       -15.4981759948       -0.9532041931        5.5383191452
 H       -13.9541930627       -0.4720424194        4.7444176912
 H       -16.8916243769        0.8584089566        6.7762087405
 H       -17.1588590779        1.6817302976        5.3465916497
 H       -16.4262873176        2.6592446357        6.6467865168
 Na       -9.3594615532        3.4400272464       -2.4253052601
