117

 C       -14.3990827099        1.5726193842        8.3570664351
 C       -14.0412754347        1.1165985572        7.0208619154
 O       -12.9128916310        0.6171217984        6.9071026264
 C       -15.0223572218        1.2527058949        5.8312324564
 C       -14.2506965446        2.3294340075        4.8494224737
 O       -14.7413394611        3.4609001961        4.7532161273
 C       -13.0192439604        1.8357236198        4.1103762709
 C       -12.1856801987        3.0134580903        3.5597578350
 C       -11.7637036631        2.9685232270        2.1227111312
 O       -11.9426555234        1.9703566732        1.3984824577
 C       -11.0784198021        4.1295219096        1.3921834862
 C       -11.6329150620        4.2785015670       -0.0299943898
 O       -10.8812272779        4.2276476725       -0.9961414767
 C       -13.1335885707        4.5013823264       -0.2258351699
 C       -13.5014687728        4.6728772571       -1.6848159782
 C       -13.0177043661        6.0078715581       -2.1342539228
 O       -13.0447585210        6.9997351513       -1.4221499798
 C       -12.2408418210        6.0280307263       -3.5722208424
 C       -10.7893764143        6.4136377655       -3.2237958715
 O        -9.9521072607        5.5105151201       -3.1620261549
 C       -10.3286735194        7.8246833016       -3.0482555762
 C        -9.5878029589        7.9535221723       -1.7337537490
 C        -8.2595111708        8.6271930097       -1.7421677949
 O        -7.7345936906        9.0310291066       -2.7569620222
 C        -7.4186077611        8.6497402914       -0.2896208007
 C        -6.9213681323        7.1273568767       -0.0960335607
 O        -7.6777239302        6.3296714001        0.4327829724
 C        -5.6033137880        6.6454745950       -0.6982807490
 C        -5.3599363014        5.1604339775       -0.5732959298
 C        -6.1668944257        4.2470655407       -1.4896275694
 O        -7.3673157854        4.3788688859       -1.4995862004
 C        -5.3900409810        3.1726121365       -2.3415246461
 C        -6.4057339182        2.1687772393       -3.1616533254
 O        -7.4494389690        2.5792452114       -3.6111941808
 C        -5.9751537483        0.7728828678       -3.5033575288
 C        -7.1696013410       -0.0807107967       -2.9945601546
 C        -7.0734724154       -0.4215466960       -1.4575920045
 O        -5.9985512104       -0.2983447675       -0.8664971852
 C        -8.4367369737       -0.9529611932       -0.8232726776
 C        -9.6080589721        0.1038702989       -1.0316614271
 O        -9.3995936841        1.1711829243       -1.5568568664
 C       -10.9793807087       -0.2856770270       -0.4805971838
 C        -8.8516275813       -2.2866866370       -1.5553578300
 C        -8.2702595496       -1.2289591780        0.6955756564
 C        -4.6427805525        3.9241761824       -3.5181451368
 C        -4.3994044024        2.3901505520       -1.4604608805
 C        -6.2031058887        9.6448438150       -0.4106043684
 C        -8.4379788415        8.9355454635        0.7508566553
 C       -12.3683105429        4.7775935471       -4.4448723222
 C       -12.8200473279        7.2047351684       -4.3707474126
 C       -11.1963810640        5.5319287697        2.2276767390
 C        -9.5385686052        3.7346158661        1.3028018859
 C       -15.2942114329       -0.0727012475        5.1151451123
 C       -16.3680131056        1.9099264796        6.1672940557
 H       -15.1545882251        0.9929516784        8.8301637993
 H       -14.8155946294        2.6382769173        8.2836056875
 H       -13.6042662751        1.5318763122        9.0963138873
 H       -13.4278577272        1.2115248794        3.2644524996
 H       -12.4302032430        1.1387126616        4.8359732990
 H       -11.3615047835        3.2401348499        4.1570330557
 H       -12.9311072095        3.8408529107        3.5232485040
 H       -13.5016823115        5.4337228820        0.2316084045
 H       -13.6475485326        3.7468891330        0.2672052654
 H       -14.6011813148        4.5238212880       -1.8006777036
 H       -13.1132230789        3.8442989721       -2.2855677250
 H       -11.1763053071        8.4660295625       -3.0232705838
 H        -9.6608218633        8.0560037136       -3.8846593512
 H        -9.3077987443        6.9609947129       -1.3801635376
 H       -10.2377252899        8.2373168175       -0.8769939639
 H        -4.7686080325        7.1999435908       -0.1832247286
 H        -5.4989903361        7.0322178894       -1.7779189504
 H        -5.5772694879        4.8308488813        0.4654184147
 H        -4.3183511819        5.0403003582       -0.8186060610
 H        -5.0356835542        0.4258393300       -3.0394398921
 H        -5.7573746122        0.7603389134       -4.5977696232
 H        -7.2304935376       -1.0333166027       -3.4806584554
 H        -8.1448097011        0.3381407946       -3.1979371029
 H       -11.3334379740        0.5746370937        0.0617866401
 H       -10.9599018748       -1.1048707169        0.2190117558
 H       -11.6652028217       -0.6120604292       -1.2251307478
 H        -9.7935425995       -2.2458018811       -2.1822863476
 H        -8.8490300277       -3.0634184236       -0.8529204940
 H        -8.1025054364       -2.5630962095       -2.2355244835
 H        -7.4553998209       -1.8554199236        0.9388947440
 H        -9.2248862018       -1.7451341329        1.1126389423
 H        -8.1008899067       -0.2707241731        1.2193160059
 H        -4.2655374115        3.1087021742       -4.1582306616
 H        -3.8868281841        4.5502074053       -3.1134383189
 H        -5.3959934784        4.4975534282       -3.9979309514
 H        -4.9922984276        1.8334839222       -0.7115036118
 H        -3.7617433103        3.0164260623       -1.0827894208
 H        -3.8109157498        1.5613303849       -1.9245082280
 H        -6.4656068370       10.7020834177       -0.3095559760
 H        -5.7295769602        9.6172871747       -1.4379013527
 H        -5.5001048610        9.4308171396        0.4669182036
 H        -8.8404183773        7.9456472858        0.9872634001
 H        -9.2194100057        9.6009078739        0.3906726559
 H        -8.0531356183        9.3859018361        1.6989006693
 H       -11.9796957397        5.0666546465       -5.4722648697
 H       -13.3584013168        4.3568841009       -4.4962446244
 H       -11.7580283402        3.9163647841       -4.0573208184
 H       -12.1410970383        7.4538531975       -5.1063030160
 H       -12.9088344474        8.1151727510       -3.6763442076
 H       -13.7439216607        7.1045904657       -4.9407328298
 H       -10.5605279443        5.5515372275        3.0625202153
 H       -12.2137480763        5.7929697535        2.4968273527
 H       -10.8068928569        6.2441739442        1.5234747767
 H        -9.3550820074        2.9452917258        0.5768181389
 H        -9.1318144496        3.5002802975        2.2888666951
 H        -8.9467278507        4.5863527235        0.9020406654
 H       -15.7620407010        0.1098839679        4.1665011410
 H       -16.0403577287       -0.5674213720        5.6862441438
 H       -14.4906980013       -0.7100812856        5.0482272095
 H       -16.9218010376        1.3207814838        6.9411104521
 H       -17.0030573946        1.8551070943        5.2762747910
 H       -16.1566345146        2.9788274711        6.3781948523
 Na       -9.1667719720        3.3554727832       -2.2988139540
