117

 C       -14.4732094289        1.5973250792        8.5685983634
 C       -14.0202778933        1.1563944855        7.1066051712
 O       -13.0055817943        0.6079888893        6.8565585510
 C       -15.0317843089        1.3586732853        5.8397304433
 C       -14.2579991945        2.2702854981        4.7673595543
 O       -14.6227305466        3.3869736440        4.6401743250
 C       -12.9161264656        1.8798122618        4.0346760423
 C       -12.1590029261        3.1372005015        3.5457730054
 C       -11.8020067697        3.0137079833        2.0282699319
 O       -12.0302325399        2.0408836855        1.3752916475
 C       -11.0265052798        4.2182483392        1.3192320247
 C       -11.6573121295        4.3338445140       -0.0924698609
 O       -11.0597541228        4.2137753190       -1.1412146551
 C       -13.1959383513        4.5434866228       -0.1954491676
 C       -13.6293456219        4.6691268257       -1.6364030907
 C       -13.0087262396        5.9510720516       -2.2285115543
 O       -13.0767709484        6.9507628987       -1.5223085267
 C       -12.2118204551        6.0302675770       -3.6165399242
 C       -10.6588958343        6.3566169391       -3.2491890768
 O        -9.8484119691        5.4589664523       -3.0810110547
 C       -10.2960193609        7.8255218731       -3.0300032281
 C        -9.5513220711        7.9341267999       -1.6776908344
 C        -8.1473545141        8.5458750665       -1.7927787975
 O        -7.6716756425        8.9454119446       -2.8641740932
 C        -7.4185023784        8.6177172874       -0.3914275602
 C        -6.9362124224        7.1696464031       -0.2229944343
 O        -7.6299383134        6.4492498132        0.4640910074
 C        -5.5217894436        6.6925780618       -0.7141635092
 C        -5.3156051274        5.1623806502       -0.5318676316
 C        -6.1469820578        4.1518814765       -1.4306212618
 O        -7.3523206445        4.3176520188       -1.4833323311
 C        -5.3997401639        3.1000610274       -2.2632699947
 C        -6.4054332073        2.1606017435       -3.0730272497
 O        -7.3881969633        2.6567072302       -3.5676595630
 C        -6.0179556338        0.7052250276       -3.3420763106
 C        -7.1371664396       -0.2830295279       -3.0307011194
 C        -7.1545443031       -0.4212950334       -1.5239675156
 O        -6.1027493813       -0.2026498260       -0.8947727724
 C        -8.4272525291       -0.9606895940       -0.8267705429
 C        -9.6613638643        0.0147279731       -0.9348975528
 O        -9.5001934521        1.0626366721       -1.5599457197
 C       -11.0790566616       -0.4136748214       -0.5776971812
 C        -8.8260636757       -2.2944345985       -1.5709646504
 C        -8.1648202701       -1.2073874396        0.7010465470
 C        -4.6947031539        3.9130603815       -3.4039215860
 C        -4.3583746971        2.2911419071       -1.5018805529
 C        -6.2588259104        9.6895476479       -0.4302184625
 C        -8.2719168678        8.9985468119        0.8701224643
 C       -12.3308512798        4.7640708090       -4.3647191527
 C       -12.9293971569        7.1821588148       -4.4752995191
 C       -11.2106418073        5.5378555082        2.1896563904
 C        -9.5171357990        3.8407582121        1.2784861883
 C       -15.2924633652       -0.0121627679        5.1965106825
 C       -16.3969419031        1.9822509287        6.3231094100
 H       -15.1794937758        0.9578004890        9.0400171134
 H       -14.8969831095        2.5774620286        8.5826123282
 H       -13.6513082486        1.5594584949        9.2862898282
 H       -13.1262948509        1.2211319128        3.2039644693
 H       -12.3478277035        1.3473610326        4.7970478322
 H       -11.2297854446        3.2179040105        4.1063852384
 H       -12.8091260647        4.0238603188        3.7066464674
 H       -13.5663225008        5.4868873775        0.2590145152
 H       -13.7339821636        3.7286867806        0.4019044070
 H       -14.7576579058        4.6644797090       -1.7301714630
 H       -13.3656749533        3.7205723134       -2.1215363538
 H       -11.1347113135        8.5237171900       -3.0894783314
 H        -9.5279149717        8.0316753685       -3.7729424086
 H        -9.5394237692        7.0188633924       -1.0712950837
 H       -10.0969421787        8.5973520933       -0.9416719856
 H        -4.6864728241        7.3068741724       -0.2781044203
 H        -5.4620719741        6.9196807012       -1.7258236683
 H        -5.6208149387        4.8744773838        0.5436370825
 H        -4.2579934297        4.9943075467       -0.6939046151
 H        -5.0680587982        0.4095509305       -2.8833962908
 H        -5.7404204425        0.7117552688       -4.4461590083
 H        -7.0927767982       -1.2496330294       -3.5155700760
 H        -8.0800965906        0.0917632183       -3.3216104646
 H       -11.4452519267        0.4819426139       -0.0502520993
 H       -11.2244135684       -1.3099801364        0.0975783484
 H       -11.6575405058       -0.6110198339       -1.4293085066
 H        -9.7281435645       -2.2678384130       -2.1473904480
 H        -8.8489418978       -3.1010939858       -0.8243496868
 H        -8.0515151242       -2.6130801763       -2.2631117350
 H        -7.0840422681       -1.4562661357        1.0305936076
 H        -8.8720942189       -1.9847147991        1.0801442125
 H        -8.3705815323       -0.2571955173        1.2444570105
 H        -4.3644216561        3.2201986405       -4.0458572695
 H        -3.8923669396        4.4927878270       -2.9869067264
 H        -5.5152941453        4.5329965646       -3.8430490581
 H        -4.7461709371        1.5302023773       -0.8949800389
 H        -3.7498335278        3.0716280503       -0.9459716026
 H        -3.6185204374        1.8268441850       -2.1426304834
 H        -6.7108589569       10.7249051639       -0.4959288024
 H        -5.5415099991        9.6716093773       -1.2575174537
 H        -5.8141788923        9.6830456084        0.6008286091
 H        -8.7260561655        8.0695234606        1.3515942274
 H        -9.0714330880        9.7418861389        0.5656808976
 H        -7.6685455439        9.5356295258        1.6050300214
 H       -11.5447351555        4.9392906815       -5.1678325849
 H       -13.2972524596        4.4539311223       -4.8040763217
 H       -12.0549529465        3.9204872390       -3.7929392012
 H       -12.5207612902        7.3096984030       -5.5202968816
 H       -12.9586882613        8.1010318125       -3.9396118140
 H       -14.0209774306        7.0139075702       -4.6468217691
 H       -10.6195573842        5.4654884187        3.0904454146
 H       -12.2526432966        5.6377745360        2.4503229242
 H       -10.8564455095        6.3376366592        1.6266025413
 H        -9.4228384345        2.9358490236        0.7324077060
 H        -9.1030925388        3.7992900046        2.3051169132
 H        -8.9100510276        4.5444866254        0.6839408590
 H       -15.8082492578        0.0679670373        4.2534236515
 H       -15.9926182853       -0.5186804469        5.8260644634
 H       -14.4133731639       -0.6369397224        5.1383848802
 H       -16.7655098275        1.2575822107        7.0510159619
 H       -17.1128241610        2.0553055850        5.5286458772
 H       -16.2061056348        2.9946568800        6.7471840020
 Na       -9.1791187559        3.4260155992       -2.2779693858
