117

 C       -14.4774626737        1.5635940773        8.4614078699
 C       -14.0902422945        1.1622110487        7.1000545582
 O       -13.0081832017        0.6081534839        6.9330273097
 C       -14.9956272901        1.4315172231        5.9263205005
 C       -14.2300935070        2.4038686050        4.9012513044
 O       -14.6510847745        3.4624625406        4.4945680481
 C       -12.8693315008        1.8501446154        4.0960213462
 C       -12.1704746980        3.0985643383        3.4990291304
 C       -11.8003353448        3.0077654151        2.0243834482
 O       -12.1589720464        2.0655001793        1.3705831584
 C       -11.0414884885        4.2555885491        1.3389280135
 C       -11.7579420560        4.3613936708       -0.0779873054
 O       -11.2065356409        4.1499173758       -1.1401914716
 C       -13.2606571352        4.5851082213       -0.1401925144
 C       -13.7247153238        4.7553696309       -1.6249629859
 C       -12.9556627134        5.9577549135       -2.2653051024
 O       -13.0817278789        6.9945245761       -1.6785079757
 C       -12.1624929435        5.9768957291       -3.6529225424
 C       -10.7150782599        6.3615389144       -3.2801684901
 O        -9.8992012470        5.4888927613       -3.1821844701
 C       -10.2639585076        7.8101320286       -3.0354844505
 C        -9.5581120702        8.0038973088       -1.6211915658
 C        -8.1039764507        8.6304723363       -1.6984905200
 O        -7.6006221802        8.7861658367       -2.7889528675
 C        -7.3398748642        8.6648815864       -0.3854413102
 C        -6.8430774366        7.1808791951       -0.1388017263
 O        -7.5346072726        6.4029658777        0.4644584410
 C        -5.5585149263        6.6306381921       -0.8190808666
 C        -5.2220287095        5.1492959975       -0.4806521456
 C        -6.1031707261        4.1902576576       -1.3209972042
 O        -7.3049858951        4.3617953914       -1.3124719191
 C        -5.3498163646        3.1098421423       -2.2424450281
 C        -6.3557903304        2.1721694229       -3.0343232598
 O        -7.3847689186        2.6384545095       -3.5378853089
 C        -6.0513459033        0.6924529856       -3.3976112629
 C        -7.0936796677       -0.3272215559       -3.0604581528
 C        -7.2275750508       -0.4558993349       -1.5030152528
 O        -6.3278085474       -0.1345314611       -0.8126307492
 C        -8.5059245988       -1.0677788486       -0.8060827882
 C        -9.7275591125       -0.0423165503       -1.0731134597
 O        -9.5422277780        1.0783324963       -1.5376117489
 C       -11.0566515576       -0.5514820827       -0.6243735455
 C        -8.8160327957       -2.4014886828       -1.4701740949
 C        -8.1176775828       -1.2016175677        0.6924635460
 C        -4.6780932758        3.9681221155       -3.3729454975
 C        -4.2633475605        2.2399894707       -1.4639957791
 C        -6.2079052025        9.7204860914       -0.5938489485
 C        -8.1884836790        9.0922116742        0.7974069022
 C       -12.2141133305        4.5956028269       -4.3946328152
 C       -12.9239280415        7.0892697089       -4.4626487935
 C       -11.2203711616        5.5793372687        2.0465294049
 C        -9.5611802475        3.9543982550        1.1875726448
 C       -15.2447215019        0.0040890911        5.2989596714
 C       -16.2967103077        2.1127630778        6.3610197962
 H       -15.1708768728        0.8378702831        8.9275558354
 H       -14.8630242417        2.4976557018        8.6297814495
 H       -13.6226744634        1.4068227307        9.0741200328
 H       -13.2775383006        1.2346971462        3.3237931523
 H       -12.2940556554        1.2856402095        4.7400046529
 H       -11.2021786518        3.2165820110        4.1169776978
 H       -12.8329254672        3.9656579272        3.6350095440
 H       -13.6141658557        5.4759641467        0.4412913703
 H       -13.7453815204        3.6857349864        0.4264058682
 H       -14.7845280952        4.9554364317       -1.7639258921
 H       -13.5881582568        3.7181114513       -2.0045670177
 H       -11.0937074662        8.5621418015       -3.0588916209
 H        -9.4816956449        8.0132618160       -3.7831184801
 H        -9.5659861564        7.1357001551       -0.9053995325
 H       -10.2050723646        8.6592324981       -1.0600854113
 H        -4.7537023983        7.2066857027       -0.4342597727
 H        -5.5753364226        6.8726804195       -1.8541751518
 H        -5.5335205783        5.0414753147        0.5586954158
 H        -4.1135558885        4.9885935726       -0.6115271937
 H        -5.0809839049        0.3847232695       -2.9989238706
 H        -5.8703795091        0.6138054777       -4.4693305900
 H        -6.7883011544       -1.3346212805       -3.4019868533
 H        -8.0261843706       -0.1853145779       -3.6173037796
 H       -11.5668946676        0.2008658212        0.0185893496
 H       -10.9683169530       -1.5104503572       -0.1185116353
 H       -11.6916019219       -0.8109671448       -1.5379794932
 H        -9.5810929630       -2.2229667657       -2.1714676128
 H        -9.1522727707       -3.2438103388       -0.8129086772
 H        -7.9740806787       -2.8097721197       -2.1020221824
 H        -6.9678185732       -1.2124118300        0.7631711428
 H        -8.5042463611       -2.0718278593        1.1532936215
 H        -8.3410575302       -0.3080397006        1.3112426052
 H        -4.1253509736        3.3080800792       -4.0739705703
 H        -3.9607840022        4.5436766846       -2.7934586147
 H        -5.4482287082        4.5592259277       -3.8279863863
 H        -4.6589182322        1.3319746715       -0.9904923502
 H        -3.6926766486        2.9525016973       -0.7050456819
 H        -3.4573666711        2.0095142064       -2.1178467996
 H        -6.6457220403       10.6891416586       -0.9049251414
 H        -5.5237779470        9.4605215259       -1.3887106559
 H        -5.7190212675        9.9237920255        0.3217875501
 H        -8.8825122416        8.2773731489        1.1407543725
 H        -8.7494650820       10.0269212900        0.5352971680
 H        -7.5110658530        9.3960655400        1.6189874856
 H       -11.4683939208        4.5834854410       -5.1135601220
 H       -13.1826155634        4.2935549061       -4.8251618036
 H       -12.0291380526        3.7965709874       -3.6813711335
 H       -12.6795874877        7.0974014121       -5.5869529387
 H       -13.0486014375        8.0480899735       -4.0389344208
 H       -13.9851670670        6.8028260293       -4.4517005197
 H       -10.8700098245        5.4824906023        3.0863764366
 H       -12.2742783018        5.7329918411        2.0917873434
 H       -10.6449396951        6.3605813286        1.5294152888
 H        -9.4844751865        2.9503843701        0.7327017785
 H        -9.0491314143        4.0609619072        2.1333015563
 H        -9.0596651582        4.5524234118        0.4591624392
 H       -15.8673891569        0.0219168572        4.4026873634
 H       -15.7744058064       -0.6781300614        5.9962586560
 H       -14.2242554359       -0.4558111911        5.1016051583
 H       -16.7452674839        1.4138400731        7.0344715327
 H       -16.9113349626        2.2672190582        5.4596965205
 H       -16.1128972150        3.0443692640        6.8283554298
 Na       -9.2750281805        3.4145075854       -2.2622549210
