117

 C       -14.4882725204        1.5473049509        8.5418634546
 C       -13.9307342963        1.2000902517        7.1792033096
 O       -12.8864894982        0.5698469366        6.9431676404
 C       -14.8833524453        1.5310293115        5.8618913582
 C       -14.2614531750        2.3913003861        4.7800509158
 O       -14.7600866240        3.4981294669        4.5417642790
 C       -12.9110398220        1.9378073315        4.2067588221
 C       -12.1207692128        3.0877201144        3.5771886463
 C       -11.8474254054        2.9854658332        2.0711902144
 O       -12.2303096875        2.0563146232        1.3105488799
 C       -11.2124727720        4.1998531748        1.3340049121
 C       -11.9291985330        4.2480699010       -0.0837906760
 O       -11.2332045608        4.0673716823       -1.0831955959
 C       -13.3595058726        4.6355910553       -0.1829854452
 C       -13.7645553040        4.8458769894       -1.6580275749
 C       -13.0435190195        6.0282280527       -2.2370481910
 O       -13.0065708622        7.1532881219       -1.7680401544
 C       -12.2580390424        5.8613631866       -3.5762491260
 C       -10.7197097229        6.3336947077       -3.2792696711
 O        -9.8401477950        5.4847390028       -3.3151845036
 C       -10.2767004824        7.8518974068       -3.0267578406
 C        -9.6680403015        8.0714413540       -1.6493683127
 C        -8.1383515432        8.4481080843       -1.7064327106
 O        -7.5559422008        8.6600898883       -2.7209857488
 C        -7.2074231480        8.6842174178       -0.3515146932
 C        -6.7323118214        7.1903261468       -0.0847278948
 O        -7.4661470773        6.4263942049        0.5289985644
 C        -5.5290853361        6.6162185470       -0.8850579495
 C        -5.1333165599        5.1803148666       -0.4726600231
 C        -6.0539882935        4.1991622382       -1.2341570384
 O        -7.2571131296        4.2744280870       -1.1855540902
 C        -5.3262728448        3.1437689811       -2.2548406649
 C        -6.3596666090        2.1707479762       -3.0232542172
 O        -7.4176195106        2.6360036616       -3.4144915649
 C        -5.9777934949        0.7078366941       -3.4984089397
 C        -7.0443713668       -0.3008641511       -3.0300641495
 C        -7.1962082951       -0.4410099834       -1.4933779819
 O        -6.3725351491        0.0708817017       -0.7534232410
 C        -8.5242983080       -1.1063680333       -0.8980276331
 C        -9.7179267507       -0.1292486986       -1.0714382255
 O        -9.5543417864        0.9910509431       -1.4924851946
 C       -11.0979475073       -0.6472030826       -0.6362021096
 C        -8.8579286519       -2.5524555134       -1.3811334552
 C        -8.2963291985       -1.2145056313        0.6336281386
 C        -4.6334335167        4.0015072814       -3.3283349207
 C        -4.3090257614        2.3349083748       -1.4388558974
 C        -6.0432236605        9.6645083553       -0.7777170372
 C        -8.1507067256        9.2001862650        0.7747817428
 C       -12.0986935325        4.5130043723       -4.3645297460
 C       -12.8851908807        6.8856720840       -4.5263144606
 C       -11.2878828008        5.6639178241        1.9815210394
 C        -9.6182783989        3.9518810182        1.0446302718
 C       -15.2068413615        0.1480889932        5.3107768096
 C       -16.2444249874        2.2583893724        6.2395078563
 H       -15.3308953315        0.9007474019        8.7736586517
 H       -14.8728581534        2.5992829661        8.6160538881
 H       -13.8488109736        1.3893333640        9.3800391457
 H       -13.2136204033        1.2345787757        3.4392202531
 H       -12.5063843130        1.3701988428        5.0504733141
 H       -11.1748022055        3.2266973775        4.1613814893
 H       -12.7476982967        4.0036303220        3.6438878064
 H       -13.5233149366        5.6064126910        0.3577866059
 H       -13.9642309373        3.9452712615        0.3588386207
 H       -14.8121740387        5.0379525348       -1.7953765122
 H       -13.5503455912        3.8663769050       -2.0850486902
 H       -11.1629727672        8.4894514465       -3.0716162600
 H        -9.5080601492        8.1192766575       -3.7972327640
 H        -9.6417717098        7.1363897833       -1.0567543888
 H       -10.2912155268        8.6423836082       -1.0012851271
 H        -4.7142485425        7.2468407078       -0.6747625752
 H        -5.7209480362        6.7729491004       -1.9964887225
 H        -5.2972457731        5.1352321753        0.5603479621
 H        -4.0667738654        5.0064595336       -0.7151758780
 H        -4.9933988291        0.4711377618       -3.1160075161
 H        -5.8579315054        0.5955665995       -4.5421549395
 H        -6.8781223646       -1.3244068682       -3.4265444346
 H        -8.0399104756       -0.0422237232       -3.5227697021
 H       -11.6835724462        0.0132613595        0.0231813310
 H       -11.0390388471       -1.6428988198       -0.2557670942
 H       -11.6319607591       -0.8315005110       -1.6334312732
 H        -9.3401106801       -2.5125526683       -2.4295128982
 H        -9.6296954719       -3.0137374461       -0.7675243542
 H        -8.0057177719       -3.2282237150       -1.4473215477
 H        -7.3077036151       -1.3541528421        0.7741577862
 H        -8.8685724923       -2.0517088817        1.0494505756
 H        -8.4661042084       -0.3342735250        1.2197690159
 H        -3.9100396046        3.3433783978       -3.9742098413
 H        -3.9867042325        4.6053014699       -2.6796710918
 H        -5.3809560012        4.5155676363       -3.8820451116
 H        -4.8533226139        1.4005965015       -0.9755746633
 H        -3.8305738217        2.8788359119       -0.7384436640
 H        -3.4690507130        2.0110376756       -2.1294514132
 H        -6.3949277403       10.5751985571       -1.1240585381
 H        -5.4834277873        9.1762694590       -1.5762053606
 H        -5.3702827484        9.8894110770        0.0012123900
 H        -8.9952598036        8.5553921882        0.7183397776
 H        -8.4623263842       10.2152552540        0.6412801667
 H        -7.7008987910        9.1221315823        1.7987436175
 H       -11.4720424357        4.6072135112       -5.2138044289
 H       -13.0476706745        4.1705085098       -4.6061935845
 H       -11.7693908607        3.7020228988       -3.6784789209
 H       -12.3918624641        6.8245764225       -5.4303354867
 H       -13.0254382681        7.9299788785       -4.0930187666
 H       -13.9450003876        6.7470333109       -4.7205474708
 H       -11.0055021995        5.5246114710        3.0245663002
 H       -12.3222068645        6.0381581810        1.9877243449
 H       -10.5021722946        6.3089232044        1.4714790370
 H        -9.3455665502        2.9916418371        0.5668687970
 H        -9.1325113193        4.1125162267        1.9782589586
 H        -9.2136048687        4.6778682142        0.3521591671
 H       -15.9920640638        0.2003622163        4.5028410673
 H       -15.6057179736       -0.5927116831        6.0654927547
 H       -14.2674143894       -0.2785246897        4.9019762267
 H       -16.7511167552        1.6118274766        6.9498089565
 H       -16.7802249931        2.4612041163        5.3083031992
 H       -16.0340401211        3.1755847251        6.7222089440
 Na       -9.3359671908        3.3792316955       -2.2317952080
