117

 C       -14.3631376612        1.5965379384        8.5138321575
 C       -13.9438673640        1.3788697953        7.0962327915
 O       -12.7826813012        0.9509640077        6.8639574621
 C       -14.8977063325        1.6396125034        5.9174873008
 C       -14.1392950219        2.5099464259        4.8644609299
 O       -14.5488518575        3.6084189732        4.5128863234
 C       -12.7345764508        2.0468097700        4.3528124900
 C       -12.0458981522        3.1509882551        3.5657624269
 C       -12.0006837047        3.0725170446        2.0898901647
 O       -12.3698365306        2.0475552152        1.5170593565
 C       -11.3990786368        4.1606361364        1.2418985469
 C       -12.1431013919        4.1987866427       -0.1676567667
 O       -11.4743727290        3.8212818682       -1.1372854091
 C       -13.4691612198        4.8132263708       -0.3349004356
 C       -13.9644554385        5.1266874106       -1.7933618371
 C       -12.9527031168        6.1605383443       -2.3638336547
 O       -12.7929247110        7.2453323854       -1.8800159944
 C       -12.0725537741        5.8128171653       -3.6404313048
 C       -10.6661585776        6.2434223404       -3.2269893270
 O        -9.7025544653        5.5301722132       -3.1774481170
 C       -10.3949554010        7.7205143134       -2.9842064712
 C        -9.6172552390        7.9476746278       -1.6720317625
 C        -8.1332935979        8.2937404359       -1.8755892995
 O        -7.6368599441        8.2360586124       -2.9489917438
 C        -7.1849226505        8.5576628557       -0.6292589460
 C        -6.6479161467        7.2255103855       -0.0435549541
 O        -7.2291087126        6.6290293520        0.8654989849
 C        -5.5390716919        6.5130030375       -0.9221112152
 C        -5.1643448147        5.1002387841       -0.4619409174
 C        -6.1131013324        4.1553731627       -1.2148948635
 O        -7.2728321841        3.9930984428       -0.9132793778
 C        -5.3734415712        3.1006239226       -2.2868657633
 C        -6.3697832286        2.1602737670       -2.9014411484
 O        -7.4799073206        2.5834890520       -3.2480585980
 C        -6.0229087216        0.7303117677       -3.2081704032
 C        -7.1721485993       -0.1853537854       -2.8569579418
 C        -7.3294692243       -0.2633390242       -1.3630198076
 O        -6.6269663846        0.3013527253       -0.5858422132
 C        -8.5207667007       -1.0677329281       -0.8520750201
 C        -9.8045568423       -0.1435116206       -1.2337126407
 O        -9.6570616866        0.9972584141       -1.6207514376
 C       -11.1977001141       -0.6540318320       -0.8686615490
 C        -8.5500204158       -2.4474879651       -1.5864800578
 C        -8.3858562287       -1.2551080690        0.6533114398
 C        -4.6698027122        3.9154826471       -3.4199767065
 C        -4.2372287595        2.4270354110       -1.3946450217
 C        -5.9823979182        9.4262765030       -1.1094948704
 C        -7.9985900950        9.2191643152        0.5713460332
 C       -12.1448415571        4.3463170878       -4.1441735817
 C       -12.4109257033        6.6713250622       -4.7812642630
 C       -11.5358952566        5.5698374114        1.9050160474
 C        -9.8626674009        3.7446408954        1.1496713305
 C       -15.2479211518        0.3053865338        5.1742884269
 C       -16.2266621955        2.3182299305        6.4053186764
 H       -15.3681226975        1.1461540849        8.6931195831
 H       -14.4300881716        2.6069575082        8.8438771874
 H       -13.6989361342        1.1067634546        9.1860803888
 H       -12.8493618676        1.0980069890        3.8242394127
 H       -12.2455981989        1.8433370671        5.2722167003
 H       -10.9802351468        3.1546163861        3.9710225949
 H       -12.4316807143        4.1308778908        3.7897958358
 H       -13.5428774205        5.8000575199        0.2210172300
 H       -14.3021954243        4.2284032869        0.1944340130
 H       -14.9937694329        5.4272928475       -1.6122065697
 H       -13.8218585071        4.1580518275       -2.3249265118
 H       -11.3130079373        8.3315635081       -2.9830270350
 H        -9.7589603639        7.9946167745       -3.8197656508
 H        -9.7363802236        7.0476224438       -0.9849357361
 H       -10.0603877396        8.7543152590       -1.0780427231
 H        -4.6716131059        7.1116951609       -0.7919683778
 H        -5.7087906254        6.5489432048       -1.9965161910
 H        -5.3123650613        5.0540674444        0.6178509292
 H        -4.0512554139        4.8887738468       -0.6744555254
 H        -5.1250167596        0.3274014582       -2.6729316459
 H        -5.7609296996        0.5523758156       -4.2741251316
 H        -6.8955836156       -1.1612108391       -3.2129853949
 H        -8.1185434798        0.0188525786       -3.3150623351
 H       -11.7513437244        0.1230962305       -0.3571880001
 H       -11.1736128118       -1.5710840561       -0.3678001299
 H       -11.7507657878       -0.7493254821       -1.8660842135
 H        -7.8610018074       -2.6354877621       -2.4004432121
 H        -9.4741405902       -2.5506787075       -2.1092724582
 H        -8.4213000487       -3.2700041666       -0.8955707385
 H        -7.8714412901       -2.1871380666        0.8705483649
 H        -9.4372123321       -1.2213197652        1.0452443672
 H        -7.7106923594       -0.4954669354        1.2049866638
 H        -4.1806191115        3.1797763825       -4.1160270996
 H        -3.9026575475        4.4548818093       -2.9502252896
 H        -5.3845835337        4.4293561331       -3.9159013558
 H        -4.7707827743        1.9713780963       -0.4901670781
 H        -3.5751618486        3.0975178123       -0.9810905746
 H        -3.6848135495        1.7425345508       -2.0013810349
 H        -6.2354798992       10.5161455805       -1.0674783990
 H        -5.6033507933        9.0522116944       -2.1081568879
 H        -5.0823429263        9.2702091721       -0.4836387885
 H        -8.8197206483        8.5670673275        0.8920297640
 H        -8.4474374297       10.1536231598        0.1960456888
 H        -7.2289808450        9.4229689876        1.3588865033
 H       -11.3506586796        4.2965876745       -4.8539651587
 H       -13.1127682938        3.9717907123       -4.5712236795
 H       -11.8395886017        3.6192582848       -3.3155391084
 H       -11.6316066327        6.6964023217       -5.5435548727
 H       -12.7008048574        7.7248817638       -4.4490362196
 H       -13.3411456015        6.3188025030       -5.2238343878
 H       -10.7180179354        5.6528863390        2.5742008603
 H       -12.4238969064        5.6987997828        2.4269091337
 H       -11.4106468148        6.2718517392        1.0943381707
 H        -9.6298592019        2.8557676571        0.4876991322
 H        -9.5238095077        3.5448065269        2.1624063362
 H        -9.3153026771        4.5812921283        0.7486882854
 H       -15.6017355003        0.5389584307        4.2128093042
 H       -15.9442444971       -0.3208412073        5.6675134806
 H       -14.3468504435       -0.2433337060        4.9879365101
 H       -16.6954847778        1.6211150446        7.0902208378
 H       -16.7818352928        2.5818127424        5.4666446887
 H       -16.0192131288        3.1704828124        7.0100850744
 Na       -9.2880034564        3.3729505538       -1.9651716589
