117

 C       -14.5055933823        1.7209860953        8.5948080186
 C       -13.9576320162        1.4896296798        7.2077844246
 O       -12.8973009734        0.8441714684        7.1094537602
 C       -14.8314142348        1.7803495103        5.9487778512
 C       -14.0006737030        2.6816183186        4.9998427349
 O       -14.3708859929        3.8143368473        4.7515501645
 C       -12.6388745490        2.1325239620        4.3260058357
 C       -11.9665879474        3.2994108839        3.6487943436
 C       -12.1746478891        3.1585161765        2.0900882247
 O       -12.7334445704        2.2180157587        1.5517811192
 C       -11.4689657390        4.1433519884        1.1736402283
 C       -12.1965116331        4.1446879225       -0.2518006424
 O       -11.6049701578        3.6147494106       -1.2051112894
 C       -13.5350240742        4.8345284299       -0.5227060579
 C       -13.8329121707        5.0078022988       -2.0044802793
 C       -12.9335426176        6.1088834235       -2.5636075835
 O       -12.9429260193        7.2477777122       -2.1557301639
 C       -11.9941784261        5.6663604492       -3.7083915379
 C       -10.5944913020        6.0946501606       -3.0312364370
 O        -9.8178505103        5.3056730567       -2.6004276168
 C       -10.2300586609        7.5999921312       -3.1444128255
 C        -9.4439405436        7.9513715205       -1.8586886272
 C        -7.9600622081        8.0887005217       -2.0187695462
 O        -7.4295185599        7.7651151735       -3.0352277834
 C        -7.1356654384        8.6094425152       -0.7520764258
 C        -6.4913691566        7.3519765662       -0.0758858151
 O        -7.0360419851        6.8861404221        0.8990223315
 C        -5.4610604248        6.5011307420       -0.9243908130
 C        -5.1868460341        5.0276452375       -0.3947800607
 C        -6.0531215977        4.0050216819       -1.0542765554
 O        -7.2509853479        3.9879636426       -0.7897137745
 C        -5.3442260502        3.1251430436       -2.1293362492
 C        -6.3800774015        2.1083577093       -2.8448729712
 O        -7.4659240324        2.5674756691       -3.1574700477
 C        -6.0177859722        0.6144064264       -3.2750842921
 C        -7.0327033457       -0.4300393222       -2.8146328553
 C        -7.3881373926       -0.2334802396       -1.3440243537
 O        -6.7804839491        0.4473885323       -0.6010415994
 C        -8.7484173033       -0.9979456969       -0.8571940746
 C        -9.9524885737       -0.0564722635       -1.2068702348
 O        -9.8120845414        1.0490100705       -1.6945014013
 C       -11.3428314212       -0.6166237877       -1.0259800102
 C        -8.8929376643       -2.3406915584       -1.5897573732
 C        -8.6618581566       -1.1721183764        0.7315288684
 C        -4.8622661021        4.1830400248       -3.1983655036
 C        -4.0595797836        2.2990902177       -1.5620214465
 C        -5.9862577443        9.5620317398       -1.3072418433
 C        -7.9035862599        9.3942629416        0.3201153887
 C       -11.9326499610        4.2233861901       -4.2189008301
 C       -12.3646950087        6.6041031177       -4.8679624264
 C       -11.6474806492        5.5357960141        1.9177689104
 C        -9.8758683899        3.8244214311        1.0520112635
 C       -15.0030624321        0.4086429342        5.2372110654
 C       -16.1513298215        2.4421951181        6.3839425745
 H       -15.4507265319        1.1201194596        8.8460816727
 H       -14.8026481067        2.7375353643        8.7550504113
 H       -13.7117999399        1.5800554949        9.3526318238
 H       -12.9770233903        1.3161197080        3.6058051437
 H       -12.1166280495        1.6189287896        5.1479176944
 H       -10.9215390831        3.3391875018        3.8888151285
 H       -12.3657621118        4.2569599550        3.9639469966
 H       -13.6688019391        5.7337579092       -0.0454187687
 H       -14.2703296784        4.1832663771       -0.0809590371
 H       -14.8491215248        5.3737370343       -2.2057234287
 H       -13.5972112453        4.0132633115       -2.3760888918
 H       -11.1471560512        8.2021304229       -3.2477613511
 H        -9.6005792455        7.7201870702       -4.0172018335
 H        -9.5825743446        7.1786463320       -1.1009791344
 H        -9.7974172341        8.9190327548       -1.4666039017
 H        -4.4152934114        6.9618152930       -0.6731107645
 H        -5.5925621758        6.5324814236       -2.0220891680
 H        -5.2474787211        5.0547622831        0.6857487741
 H        -4.1471456379        4.8540341962       -0.6100151592
 H        -5.0334079964        0.3235583049       -2.8924900552
 H        -6.0057754958        0.6394280187       -4.3794153580
 H        -6.6078623757       -1.4647299866       -2.8637581032
 H        -7.9109500626       -0.4147826699       -3.4445606735
 H       -11.8891466702        0.1900767899       -0.5475765921
 H       -11.2371651299       -1.4193190366       -0.3683834052
 H       -11.8974569637       -0.8551429512       -1.9418169960
 H        -8.2113171496       -2.9765152294       -1.1020804422
 H        -8.5377315941       -2.3774133653       -2.6334054425
 H        -9.8879305568       -2.8595838735       -1.5654511406
 H        -7.7247963984       -1.7210719479        0.8672031219
 H        -9.4335628713       -1.7343488166        1.1311235109
 H        -8.6177108084       -0.2070135791        1.2438925182
 H        -4.3696764993        3.5990578603       -4.0195745359
 H        -4.1289763822        4.8461152927       -2.6775461447
 H        -5.7302677035        4.6868073711       -3.5491673829
 H        -4.4031609684        1.4131403565       -0.9641181367
 H        -3.6443974437        2.8811202095       -0.7716004410
 H        -3.4163118506        2.1083227976       -2.3681739627
 H        -6.4401805282       10.3441295729       -1.9251459970
 H        -5.2031104030        9.1024869053       -1.8508742912
 H        -5.4784690420       10.0155560887       -0.5120600355
 H        -8.5186713164        8.7388299063        0.9031320439
 H        -8.4557599280       10.2186629372       -0.0799065613
 H        -7.1087660734        9.7310124348        0.9143968116
 H       -11.0013730923        4.0942051086       -4.7055052431
 H       -12.6770487503        4.0626121999       -5.0351622021
 H       -11.8714872926        3.5249691914       -3.3694075272
 H       -11.6527124826        6.4827877319       -5.7097799420
 H       -12.2399619349        7.6416550088       -4.6052527809
 H       -13.3114355531        6.3484367744       -5.2633099240
 H       -11.0456700230        5.4347128047        2.8678448636
 H       -12.7165256683        5.7470172574        2.0988003961
 H       -11.2316676519        6.3128303027        1.2542282485
 H        -9.7414696840        2.7568619596        0.8279233751
 H        -9.4003868327        3.9249612522        2.0270811429
 H        -9.4181451461        4.4745275874        0.3278863676
 H       -15.5656973742        0.3715921726        4.2949469574
 H       -15.4948439011       -0.2270613222        6.0044205129
 H       -14.0082556239       -0.1055331139        5.0206086897
 H       -16.6120002120        1.7535635976        7.0626919144
 H       -16.6890356164        2.5039339753        5.4259083419
 H       -15.9887683648        3.3957997879        6.8693681086
 Na       -9.1965415847        3.1457813412       -1.8046177188
