117

 C        -1.1329012483        4.3936593174        4.4144216714
 C        -1.8308447617        5.3734811410        5.3126282342
 O        -1.9044310966        5.1969930415        6.5294823110
 C        -2.5066024449        6.6723123401        4.6582124951
 C        -3.8417760067        6.1954014679        3.9439258844
 O        -3.8715390610        5.5148677675        2.9288624460
 C        -5.2087276367        6.5220789006        4.6899479821
 C        -6.2362849143        5.4254708221        4.2700707337
 C        -7.6668827078        6.1024101272        4.4256283832
 O        -7.7173332402        7.3111682090        4.5618607801
 C        -8.9679172442        5.0933714784        4.3554877105
 C       -10.1136104518        5.9382575043        3.9078272351
 O       -11.1496125990        5.9274150313        4.5455401315
 C        -9.9856360695        6.8245603922        2.6250166843
 C       -11.3527240298        7.0030227713        1.8926397036
 C       -11.8424058038        5.8321410791        0.9886088691
 O       -11.0800685925        5.1386754557        0.3255313581
 C       -13.3239350787        5.7606430455        0.6477815867
 C       -13.8466211499        4.4204921222        0.2905541108
 O       -13.5614281215        3.9703611251       -0.8119549929
 C       -14.4756768600        3.4953662981        1.3146508561
 C       -14.9370264880        2.1759019722        0.6819274063
 C       -13.7163754913        1.3809242613        0.2619132406
 O       -12.5897885077        1.7147117411        0.5650186122
 C       -13.9049486362        0.2190357677       -0.9176437240
 C       -13.0385920263        0.6681591505       -2.1268069738
 O       -11.8858651607        1.1105969455       -2.1098082172
 C       -13.6786222940        0.4395515468       -3.5235104188
 C       -12.6824006673        0.0967740984       -4.6114389274
 C       -12.8013324741        1.1837149674       -5.6830874698
 O       -13.8934803561        1.6537389043       -6.0066387598
 C       -11.5313141414        1.5278164368       -6.6313150956
 C       -10.3272387304        2.0314456881       -5.7426201697
 O        -9.6787541997        1.2602216034       -5.0495849298
 C        -9.8943214827        3.5596524791       -5.7333485066
 C        -8.7878798422        3.7693828553       -4.7357773319
 C        -9.1657828005        3.1935564656       -3.3832363929
 O       -10.2104433237        3.5822824829       -2.9325871972
 C        -8.0381807599        2.5036236814       -2.4176494228
 C        -8.7903915937        1.3567344443       -1.6083162469
 O        -9.2718841108        1.5378361342       -0.5207362152
 C        -8.6268545322       -0.0263897977       -2.1646700792
 C        -6.8940694323        1.9471109305       -3.2468004082
 C        -7.4614257844        3.6429226360       -1.5650067510
 C       -11.0531882980        0.2082552707       -7.3461122769
 C       -11.9788281727        2.6526318590       -7.6667191847
 C       -13.2233399670       -1.0338359949       -0.4093647587
 C       -15.4679950590       -0.1868070199       -1.1287197834
 C       -14.0834760299        6.2323764754        1.9610260804
 C       -13.3972517246        6.8227920653       -0.5061722533
 C        -9.0534579873        3.9792786726        3.2141490057
 C        -9.1486650776        4.4480239663        5.7925528556
 C        -2.8555981647        7.6320925947        5.7654300269
 C        -1.5669632093        7.3388717590        3.6784708564
 H        -1.7186817920        3.9008799241        3.6422616401
 H        -0.7987232685        3.4590919266        4.9778516635
 H        -0.3246576193        4.8493012905        3.7746472888
 H        -5.4928267928        7.5899296276        4.5217965837
 H        -4.9758433062        6.3237224719        5.6886697631
 H        -6.2145217615        4.5254603413        4.9741116945
 H        -6.1084248833        5.0075277001        3.1944225480
 H        -9.2622434203        6.4347369644        1.8664778678
 H        -9.6378161566        7.7826468603        2.9361847565
 H       -11.2186298453        7.8145621104        1.1827280355
 H       -12.1322774441        7.3642714423        2.5775945420
 H       -15.3055252193        4.0205591288        1.9171036250
 H       -13.5649772912        3.2743001369        1.8456229734
 H       -15.5516274575        2.4078115323       -0.1771527710
 H       -15.4941078099        1.6127081688        1.5126515772
 H       -14.3289873200        1.2827785044       -3.8451191387
 H       -14.3699333991       -0.3772635145       -3.3433707429
 H       -12.9037131554       -0.8977337678       -5.0253699472
 H       -11.7398345611       -0.0128105437       -4.0821455747
 H       -10.7272348209        4.3226320252       -5.6137480175
 H        -9.4370837444        3.8211205447       -6.7362836339
 H        -8.6510054117        4.8648825127       -4.6408681405
 H        -7.8366770237        3.3990965651       -5.0632362970
 H        -7.7194906831       -0.4632459429       -1.8570166222
 H        -8.8127688759       -0.0778884599       -3.3108020341
 H        -9.3176392334       -0.6033266736       -1.5646345597
 H        -6.4620396816        2.7653440237       -3.8723959489
 H        -7.2364021322        1.0592034373       -3.9120180396
 H        -6.0325517185        1.6706568382       -2.7305671923
 H        -8.1913953103        3.9796198660       -0.9094521015
 H        -7.0729675804        4.5402815841       -2.0869423629
 H        -6.6272512304        3.2364742983       -1.0685851002
 H       -11.8961917081       -0.2289794441       -7.9149201224
 H       -10.7414228935       -0.4872396219       -6.5281786154
 H       -10.1379221432        0.3310751742       -7.8545041211
 H       -12.8169604340        3.1138844151       -7.1941242722
 H       -12.4116372855        2.2156729458       -8.5584699173
 H       -11.2252796341        3.3017760364       -7.9753804533
 H       -13.7566887959       -1.3921194153        0.4656182744
 H       -12.1694337599       -0.9097993399       -0.2030401618
 H       -13.2550368984       -1.7271136386       -1.2354509847
 H       -15.8836006599       -0.5801518944       -0.2128457017
 H       -15.6875560352       -0.9735107324       -1.8459361749
 H       -16.0158740759        0.6835041086       -1.5595775673
 H       -15.1702513100        6.1323712791        1.8361411494
 H       -13.8957562145        7.3356111649        1.9523992694
 H       -13.8934381598        5.7269947652        2.9287247948
 H       -12.7918345755        6.4225821874       -1.3235619944
 H       -12.9426595359        7.7323772809       -0.1325400965
 H       -14.3130284222        7.0729118046       -0.9347403503
 H        -8.9268898109        2.9782461949        3.6240273930
 H        -8.2826368472        4.0784990870        2.4878806732
 H       -10.0140955915        3.9860710465        2.6752201333
 H        -8.8224587004        5.0698068804        6.6139849800
 H        -8.5308659067        3.5831272928        5.7826053460
 H       -10.1670687200        4.1526126537        5.8882311910
 H        -3.5218634716        7.2289749376        6.5376984693
 H        -3.3459561480        8.4808313175        5.3693695370
 H        -2.0059901294        8.0442058424        6.2233422269
 H        -0.9651960148        6.5268696644        3.2010847104
 H        -0.9195735676        8.1030613558        4.1325735251
 H        -2.1535534278        7.9501373950        3.0043147898
 Na      -11.3958875160        3.0655302826       -0.8781610724
