117

 C       -14.5173367496        1.8882491757        8.6727665977
 C       -13.9540923111        1.4294218716        7.3558131735
 O       -12.9307781104        0.8536200736        7.3159171045
 C       -14.8105903865        1.7601147922        5.9932281184
 C       -13.9396623514        2.7432404431        5.1093286258
 O       -14.2606481744        3.8867633006        5.0754120662
 C       -12.6513602607        2.1414514209        4.3550841844
 C       -11.9088556478        3.2164397097        3.5976850044
 C       -12.3252094805        3.2403198107        2.0813363302
 O       -12.9661918129        2.3636127869        1.5724715486
 C       -11.5074522795        4.2922602899        1.1582082071
 C       -12.0727298422        4.1066892807       -0.2312540095
 O       -11.5347216159        3.4622788212       -1.0910361644
 C       -13.4916877989        4.6747242570       -0.4956589349
 C       -13.8423809642        4.8403116849       -1.9629374359
 C       -13.0131756617        5.8669750239       -2.6942500217
 O       -13.2091873318        7.0213401250       -2.3386915483
 C       -11.9073101538        5.6438280390       -3.8466771168
 C       -10.5419049942        6.1276024265       -3.1252662653
 O        -9.8753109626        5.3062104672       -2.4806770474
 C       -10.1145752441        7.6246615850       -3.1712825991
 C        -9.2797665045        8.1249488290       -1.9827770852
 C        -7.7724285482        8.0816304324       -2.0447757237
 O        -7.2359148259        7.5178759553       -3.0007321970
 C        -6.9534743737        8.6829657107       -0.8090178132
 C        -6.4091553956        7.3104323810       -0.0926061840
 O        -6.8681864854        6.9348032654        0.9566083295
 C        -5.3096229844        6.5545450563       -0.7789075382
 C        -5.2482754649        5.0955042220       -0.2854785509
 C        -6.0336500679        4.0681567133       -0.9938974364
 O        -7.1816406337        3.8567890712       -0.6466092840
 C        -5.3169407205        3.2059757694       -2.1242977151
 C        -6.3868724203        2.1646062827       -2.8207259870
 O        -7.5151758638        2.4597479649       -3.1715616641
 C        -5.8375101952        0.7606026262       -3.1828501690
 C        -6.9503013036       -0.2913184180       -2.9009446637
 C        -7.5886696155       -0.1767428389       -1.4280544138
 O        -6.9613115746        0.4573675177       -0.5825435257
 C        -8.8886298476       -1.0281695672       -0.9062590931
 C       -10.1405217431       -0.1912755606       -1.3181025410
 O        -9.9152653841        0.9407033498       -1.7079914257
 C       -11.5452496614       -0.5417576923       -0.8623347369
 C        -8.8984095316       -2.4735559049       -1.4381256220
 C        -8.8682537500       -1.0450355976        0.6340121759
 C        -4.8564744253        4.0792019367       -3.3902528856
 C        -4.1766808019        2.3980940255       -1.5348474663
 C        -5.8228442141        9.4612309567       -1.3964270073
 C        -7.8232499159        9.4793131677        0.1518682639
 C       -11.8005454319        4.1400181324       -4.1974837554
 C       -12.2483487517        6.5087108068       -5.1811119959
 C       -11.6043701435        5.8017710532        1.6111707139
 C        -9.9871557000        3.9566775665        1.1002486076
 C       -15.0480412954        0.4135606764        5.3299493604
 C       -16.1926981103        2.4385727526        6.2101290545
 H       -15.3545267909        1.2783049634        8.8385798461
 H       -14.9110174324        2.9344569265        8.7701526145
 H       -13.7997319486        1.7716593705        9.4853849167
 H       -13.0385628817        1.3617755933        3.7520040716
 H       -12.0566198639        1.6493522083        5.1362150602
 H       -10.8286879196        2.9367968406        3.5347530865
 H       -11.9002729740        4.2043121439        4.0675193682
 H       -13.6265511633        5.7269983905       -0.0028030618
 H       -14.2808943793        4.0405796389        0.0190248100
 H       -14.8268411458        5.3224068748       -2.1651692219
 H       -13.7633178485        3.8028700602       -2.2995646024
 H       -11.0450982254        8.1562116057       -3.2147990116
 H        -9.5926692587        7.7800523154       -4.1363269207
 H        -9.4496440427        7.4257607728       -1.1189774855
 H        -9.6273518618        9.1622991256       -1.8151738011
 H        -4.3723833710        6.9827335252       -0.6984450775
 H        -5.6249787514        6.4614864626       -1.8143286392
 H        -5.5873318415        5.1007834739        0.7851897059
 H        -4.1786117033        4.7962948256       -0.2272065518
 H        -4.9779334353        0.5292496173       -2.5480694383
 H        -5.5993181096        0.7433127267       -4.2641546081
 H        -6.5745206647       -1.2792664541       -2.9681299502
 H        -7.7188613300       -0.1021471142       -3.6573501210
 H       -12.1659136516        0.3368361700       -0.8774864917
 H       -11.5553611679       -1.0955539306        0.1204162279
 H       -11.9151869961       -1.1598913790       -1.6319467911
 H        -8.1800198842       -3.1354410409       -0.9102824194
 H        -8.6847322910       -2.5209812202       -2.4984558923
 H        -9.8644840231       -2.9037557173       -1.4002776157
 H        -7.8578877186       -1.4557414970        0.9549920713
 H        -9.6438103167       -1.7442974974        1.0863649819
 H        -9.1329957333       -0.0220020320        0.9498546209
 H        -4.5611800835        3.4346723217       -4.1326901325
 H        -4.0611563666        4.6948681190       -3.0595116035
 H        -5.7181968920        4.7164229141       -3.6941881840
 H        -4.5522265624        1.7871896492       -0.8196449257
 H        -3.4264788705        3.1600466347       -1.0107701116
 H        -3.6809306066        1.8950903935       -2.3662596940
 H        -6.0966744594       10.4069428269       -1.8961970668
 H        -5.2987082486        8.8833932809       -2.2066606079
 H        -4.9902895822        9.6498109451       -0.6308417492
 H        -8.7164603965        8.8625014440        0.2691355009
 H        -7.9968709104       10.4608406975       -0.2843752643
 H        -7.3548856392        9.5472608644        1.1383726840
 H       -11.5246279375        3.9477887279       -5.2985449616
 H       -12.8102117975        3.7765030573       -4.2471218714
 H       -11.0996296772        3.6552756855       -3.5442713119
 H       -11.4411296345        6.7112476731       -5.8739878830
 H       -12.5673240646        7.4959466387       -4.9699280071
 H       -12.9678006831        5.8353843655       -5.6811546347
 H       -10.8771947284        5.9400896130        2.3680054400
 H       -12.6204065337        5.9366476523        1.9575272660
 H       -11.4449401428        6.4779130971        0.7902123637
 H        -9.8112927001        2.9811727113        0.6789779837
 H        -9.5573409539        3.8898666377        2.1046950245
 H        -9.5112534935        4.8136671820        0.5747520486
 H       -15.4842978203        0.6510367127        4.3693035479
 H       -15.7330138237       -0.2048209400        5.8596765941
 H       -14.2033611555       -0.1530733211        5.1208330770
 H       -16.6860569045        1.8056271155        6.9890860113
 H       -16.7370218728        2.3888171359        5.2824696236
 H       -15.9910165323        3.4738954445        6.5628782036
 Na       -9.2500604985        3.1709881138       -1.7778912699
