117

 C       -14.5714137055        2.2067999623        8.6287754984
 C       -13.9930434560        1.6137014915        7.3783033527
 O       -13.0164271087        0.9554763856        7.3488193028
 C       -14.8040475473        1.8063585549        6.0330670055
 C       -13.8402654182        2.7641162212        5.2365577769
 O       -13.8360710955        3.9327735533        5.4777021534
 C       -12.7291133883        2.1744237013        4.3823934830
 C       -11.9652210229        3.2681462723        3.6986270064
 C       -12.4291609087        3.3964794248        2.2716395951
 O       -13.3773728154        2.8010087138        1.8300759242
 C       -11.5442965400        4.3108747965        1.2469063892
 C       -12.0085704267        4.0491787641       -0.2416904372
 O       -11.3220853133        3.3731789583       -0.9657063785
 C       -13.3698438044        4.4773307481       -0.6625456231
 C       -13.6714861114        4.4994847538       -2.2295415748
 C       -12.9027369660        5.6427938728       -2.8710802878
 O       -13.3857266533        6.7514214583       -2.7188842260
 C       -11.6083481713        5.6058274573       -3.8766104184
 C       -10.3070713088        6.1626773205       -3.1483838920
 O        -9.6780190620        5.4213597664       -2.3550600645
 C        -9.9882038356        7.6879009220       -3.3371138173
 C        -9.2563479397        8.3280232835       -2.1167951857
 C        -7.7553726075        7.9649505001       -2.2149052195
 O        -7.2776436489        7.2308266064       -3.0826137662
 C        -6.8557697098        8.5551439777       -1.0605131488
 C        -6.3841133664        7.2904399338       -0.1015586643
 O        -6.8407984131        7.1291961255        1.0156744232
 C        -5.2667510649        6.4539755178       -0.7567019503
 C        -5.2184912589        4.9802366161       -0.1507011911
 C        -6.0915094119        3.9607398985       -0.9313629629
 O        -7.2754795816        3.9767243417       -0.7599278252
 C        -5.3486424303        3.0731757507       -2.0969789830
 C        -6.3901071987        2.0887415354       -2.6973754578
 O        -7.4713793072        2.5199638287       -3.0660384198
 C        -6.0581793950        0.6611636781       -3.0405898392
 C        -7.3854494888       -0.1642372847       -2.7803473920
 C        -7.8298655708       -0.0585234655       -1.2933257375
 O        -7.1339332678        0.6545924488       -0.5192212755
 C        -9.0121836774       -0.8796678599       -0.8058767197
 C       -10.3269832151       -0.1633202458       -1.3429400307
 O       -10.1694894343        0.7958773521       -2.0703065359
 C       -11.6721386570       -0.8132208332       -1.0393999618
 C        -9.0057664986       -2.3132629309       -1.4906554232
 C        -8.8066702444       -1.0550604646        0.7439204678
 C        -5.0346964879        4.1093755025       -3.2249388293
 C        -4.0463231468        2.4676475103       -1.5658299268
 C        -5.6123661243        9.1197380120       -1.6976342161
 C        -7.6931663385        9.4763142306       -0.0174855828
 C       -11.4210819025        4.0709949806       -4.2574176623
 C       -12.0819070893        6.4020306316       -5.1502231206
 C       -11.8440691068        5.7769363341        1.7059637602
 C       -10.0441957256        4.0801726910        1.2809089911
 C       -14.9305351872        0.4860989844        5.3154836446
 C       -16.2554137478        2.3964979577        6.2659673956
 H       -15.5955051264        1.8555270820        8.7579105083
 H       -14.6460582086        3.3466787130        8.6443838157
 H       -14.0131759091        1.9216305948        9.5144251047
 H       -13.2545686014        1.5109189543        3.6277100481
 H       -12.1265817056        1.5159928398        5.0582301285
 H       -10.8643800190        3.0959653499        3.6471439933
 H       -12.0235844553        4.2295612641        4.1182950349
 H       -13.6208528349        5.5095914943       -0.3832119949
 H       -14.1203329958        3.9075424156       -0.2411514313
 H       -14.7576140357        4.6291772646       -2.2899814382
 H       -13.3470757407        3.5960790035       -2.7404980014
 H       -10.9300564606        8.2106871322       -3.5679170827
 H        -9.4173063601        7.6977557268       -4.2618550847
 H        -9.6557803223        7.9201009128       -1.1637876665
 H        -9.3443614506        9.3601185694       -2.2804381082
 H        -4.3350984113        6.9261939924       -0.4644544381
 H        -5.4278634968        6.3460004389       -1.9069883433
 H        -5.5072474469        5.0770579220        0.8477539572
 H        -4.1521442070        4.6488115220       -0.1027035617
 H        -5.3133414339        0.2692079366       -2.3249804483
 H        -5.7340988916        0.6415398284       -4.0903136066
 H        -7.1468849087       -1.1979414488       -3.0142779473
 H        -8.1995875906        0.2026670962       -3.4260468019
 H       -12.4674507116       -0.4793766599       -1.6583458267
 H       -11.9159581889       -0.6939458502        0.0247538569
 H       -11.4522642882       -1.8584502738       -1.2553629623
 H        -7.9767012515       -2.7569221965       -1.7610766262
 H        -9.5972316359       -2.1812068701       -2.3675036829
 H        -9.5612513509       -3.0549260559       -0.9643258830
 H        -8.0363270012       -1.7531757623        0.8685986008
 H        -9.6546205621       -1.5925872082        1.1710540844
 H        -8.6423937730       -0.1208729910        1.1709174668
 H        -4.4600855679        3.4965950748       -3.9390079021
 H        -4.5475623990        5.0363017668       -2.9276480917
 H        -6.0519044595        4.2935349999       -3.6910621885
 H        -4.1662424295        2.1144218156       -0.6283842461
 H        -3.2482070770        3.2585856595       -1.7226674473
 H        -3.7056310496        1.6749006629       -2.2175589370
 H        -5.7804829747        9.9745030390       -2.2392739371
 H        -5.3219945942        8.4824986137       -2.5106307249
 H        -4.7917644217        9.3229660897       -1.0530558039
 H        -8.1590407932        8.8024970699        0.6522444078
 H        -8.3574070052       10.1248392896       -0.5232338154
 H        -6.9943561516       10.0931598352        0.5705151755
 H       -10.3590787983        3.9806112418       -4.6132278059
 H       -12.1197639595        3.7693372870       -5.0189219029
 H       -11.4603860575        3.5444300907       -3.3118479780
 H       -11.3216234956        6.4687099226       -5.8754541934
 H       -12.2999519224        7.4760752052       -4.9096957695
 H       -12.9428068409        5.8573629291       -5.5504349879
 H       -11.4720551864        5.9682881140        2.7151345570
 H       -12.9286757639        5.9889353074        1.6178464183
 H       -11.2541683367        6.4851343440        1.0362989204
 H        -9.7509009339        3.0219230354        1.2467598406
 H        -9.6593750555        4.5200677880        2.1730187742
 H        -9.6220985909        4.6954191445        0.5001622255
 H       -15.1644412418        0.5180702233        4.2111623579
 H       -15.7363613066       -0.1740083493        5.7512487934
 H       -13.9918285113       -0.0700986894        5.4310747261
 H       -16.8958901438        1.7037802669        6.7981404069
 H       -16.7388472462        2.5393317055        5.3108985246
 H       -16.0649145441        3.3504117969        6.7011864451
 Na       -9.1841618380        3.1985201579       -1.7421255948
