117

 C       -14.5360965654        2.3098344025        8.6846069474
 C       -14.0507568754        1.5710297829        7.4267222271
 O       -13.0063569044        0.9757517287        7.4225904213
 C       -14.7481438155        1.8238322481        6.0078610640
 C       -13.8358969297        2.8474974161        5.3517994322
 O       -13.8034871468        4.0366289415        5.5869139254
 C       -12.7525292640        2.1820107547        4.3774883730
 C       -11.9579343744        3.2663064247        3.6556342746
 C       -12.4692043895        3.4112567497        2.1921099612
 O       -13.5367018224        2.9235157604        1.9134177884
 C       -11.6381762605        4.3080906024        1.2469705043
 C       -12.0348283641        3.9904099693       -0.1939025386
 O       -11.2170515597        3.3747855549       -0.8787446858
 C       -13.3755597350        4.4269681781       -0.6869647783
 C       -13.4376230614        4.3696966074       -2.2031683162
 C       -12.8645934976        5.6738729488       -2.9317520250
 O       -13.3405129473        6.7419705392       -2.7853645529
 C       -11.5953889514        5.5160662573       -3.8649865615
 C       -10.4193129789        6.1812392978       -3.1265540353
 O        -9.6645252902        5.5527551974       -2.4155497827
 C       -10.0530603039        7.6691275621       -3.3372132009
 C        -9.2135585522        8.3168831875       -2.2170081514
 C        -7.8008770968        7.8243805709       -2.1409848088
 O        -7.2846964977        7.2273307652       -3.0559676428
 C        -6.8015638066        8.4507210263       -1.0330031133
 C        -6.3602991295        7.2692738587       -0.1361011407
 O        -6.8537997055        7.0930504700        0.9370167567
 C        -5.2821073605        6.3562547577       -0.7143028850
 C        -5.2167943125        4.9520233065       -0.0868587659
 C        -6.0414884338        4.0449928922       -0.8971224266
 O        -7.2571735264        4.0364903499       -0.7657235978
 C        -5.3886123403        3.0959941046       -2.0712833032
 C        -6.3696478890        2.1163211854       -2.7115986498
 O        -7.4726035695        2.5528787278       -3.0432738757
 C        -6.0630833937        0.6533377580       -3.0836820050
 C        -7.3079763923       -0.1388350678       -2.7426856733
 C        -7.7750523321        0.0115273367       -1.2789860560
 O        -7.2532883434        0.7314536529       -0.4821366953
 C        -9.0512879190       -0.8718231570       -0.8526524199
 C       -10.3503653761       -0.2285542877       -1.2865556240
 O       -10.2908953065        0.7542969506       -2.0058047668
 C       -11.7911442061       -0.7948334075       -1.0778895962
 C        -8.9688807720       -2.2367480144       -1.4714357308
 C        -8.9906627913       -1.0676930086        0.7655685151
 C        -5.0652190143        4.1530662069       -3.2226536533
 C        -4.1075947575        2.3546178748       -1.6510617073
 C        -5.6703536357        9.1538574580       -1.7979774926
 C        -7.5486857877        9.5046603238       -0.2145202662
 C       -11.1852521133        4.0565502442       -4.2969049102
 C       -11.8864713534        6.2954227232       -5.1357648479
 C       -11.9517894817        5.8342231148        1.7687699814
 C       -10.0913218036        4.1023123473        1.3747106052
 C       -14.9375191686        0.4561110101        5.2690438897
 C       -16.1758279998        2.4483877444        6.1364366320
 H       -15.5951918846        2.1083819665        8.8688502312
 H       -14.4590735015        3.4221807067        8.5611790203
 H       -13.9805651386        2.0094007315        9.6350327063
 H       -13.1767802344        1.4209448429        3.7159983794
 H       -12.0591420382        1.6764604906        5.1296288949
 H       -10.8770441143        3.1313451293        3.6696034124
 H       -12.0571501338        4.2404243672        4.0950834835
 H       -13.6817721735        5.4906234396       -0.4639423378
 H       -14.2625017474        3.8203495082       -0.3702563011
 H       -14.5270830010        4.2422350472       -2.3933139999
 H       -12.8974552855        3.5143166807       -2.6035450717
 H       -10.9164695556        8.2720150841       -3.4784229000
 H        -9.5498539957        7.6357826686       -4.3122543146
 H        -9.6578721489        8.0431677464       -1.2498630032
 H        -9.1925276844        9.3789988227       -2.5086694035
 H        -4.3110444561        6.8189326172       -0.7002442712
 H        -5.6077167392        6.1258626945       -1.7169855713
 H        -5.4789107687        4.9722428255        1.0153155180
 H        -4.1901898177        4.6021574444       -0.1275423175
 H        -5.2123447456        0.2278642845       -2.5139737820
 H        -5.9386101447        0.5881518150       -4.2063971420
 H        -7.1254885701       -1.1334254927       -3.0157207006
 H        -8.0988003355        0.2611466088       -3.3792299641
 H       -12.3175028726       -0.4599783473       -1.9455721858
 H       -12.3256927324       -0.4352628493       -0.1845708321
 H       -11.7268478358       -1.8101780512       -1.1174431224
 H        -7.9598550985       -2.5810329303       -1.3537675805
 H        -9.2559964797       -2.2217875630       -2.5482266807
 H        -9.6301760975       -2.9568205689       -0.9906411326
 H        -8.1863243768       -1.8866676012        0.9620441271
 H        -9.8753116354       -1.5573653489        1.0951928854
 H        -8.7684404634       -0.1057039640        1.2153235239
 H        -4.7305206456        3.6326505027       -4.0391305211
 H        -4.3446840834        4.9000121460       -2.8653933835
 H        -6.0570372863        4.6313433088       -3.4395511035
 H        -4.3125949104        1.7178300844       -0.8006687821
 H        -3.2521955780        3.0793383800       -1.5971603069
 H        -3.7933468876        1.7039590461       -2.4047043930
 H        -5.9639279422        9.9201768354       -2.5097680667
 H        -5.2312436932        8.4699615435       -2.4636530936
 H        -4.9058360152        9.6257508662       -1.1686079141
 H        -8.2656086481        8.9965504551        0.3937137176
 H        -7.9749301574       10.1994813919       -0.8911437774
 H        -6.8879754339       10.0081696293        0.4090758328
 H       -10.0385814909        4.1771594662       -4.4195557248
 H       -11.6897365115        3.7882270208       -5.2632170451
 H       -11.3655156615        3.3384016525       -3.5088882969
 H       -11.0128035629        6.3030790409       -5.8236809486
 H       -12.0963346400        7.2751558087       -4.8774041190
 H       -12.7950478232        5.8909316522       -5.6243388940
 H       -11.5557850936        5.8767174883        2.8109331763
 H       -13.0304629584        6.1919610636        1.7583742641
 H       -11.2843574277        6.5122964891        1.2237856622
 H        -9.7841481239        3.1212319018        1.1104127752
 H        -9.7403443225        4.3859916472        2.3783759626
 H        -9.6422961502        4.8663174280        0.7097963213
 H       -15.5038613785        0.5144992041        4.2963428190
 H       -15.5276580155       -0.2536826736        5.8821350810
 H       -13.9875365346       -0.0559828967        5.0672093698
 H       -16.6749308376        1.7445431468        6.8197519777
 H       -16.7627650660        2.4142505960        5.2474274965
 H       -16.0505587387        3.5027486980        6.5025430253
 Na       -9.1965757607        3.0242043276       -1.7791398400
