117

 C       -14.5496049703        2.4956496072        8.7033278549
 C       -14.0206793269        1.6385412315        7.4938225307
 O       -13.1162931939        0.8615676188        7.5120978540
 C       -14.7743712736        1.8577180879        6.0868346699
 C       -13.7942751713        2.8265236992        5.3644269599
 O       -13.8149258419        3.9980289390        5.6754097567
 C       -12.6977418561        2.1987485591        4.5417397619
 C       -11.9669243959        3.1478252106        3.6507308760
 C       -12.5072668906        3.5749476797        2.3231904643
 O       -13.5959652395        3.1844415071        1.9630075209
 C       -11.6674542468        4.4730522698        1.3480651898
 C       -12.0608521672        4.0119115435       -0.1551816677
 O       -11.2222702263        3.4167114410       -0.7793359682
 C       -13.3143051102        4.4599561061       -0.8014785086
 C       -13.3316141668        4.2264133186       -2.3782089754
 C       -12.6434140232        5.4190810677       -3.0424009857
 O       -13.1468742414        6.5295202415       -2.8364991743
 C       -11.3183423264        5.4162570150       -4.0159909462
 C       -10.2355968547        6.0885503641       -3.1500419095
 O        -9.6535128201        5.4428336137       -2.2623235369
 C       -10.1621977151        7.6473233930       -3.1986945948
 C        -9.1979903306        8.2910496670       -2.2291198001
 C        -7.6917781186        7.8927042528       -2.2860621647
 O        -7.3679892675        6.9688600116       -3.0264325998
 C        -6.7941121522        8.4858297571       -1.1699443267
 C        -6.3351011729        7.2594473930       -0.2813441371
 O        -6.8818360282        6.9899803381        0.7791610996
 C        -5.1771086456        6.3854848756       -0.6957667611
 C        -5.1814985594        4.9742584191       -0.1256797641
 C        -6.1345219247        4.0347754610       -0.9928829504
 O        -7.2885910336        3.8628182283       -0.7048208048
 C        -5.4346485746        3.1646937795       -2.1353709225
 C        -6.5114593205        2.2026622281       -2.7836193295
 O        -7.4943457979        2.6942923965       -3.2894834008
 C        -6.1357166603        0.7200303288       -2.9421199900
 C        -7.3073865064       -0.2931266131       -2.6543238226
 C        -7.9470149431       -0.0517086076       -1.2794841054
 O        -7.5747479309        0.9126895005       -0.5544275854
 C        -9.1548593492       -0.8933180919       -0.8623167742
 C       -10.4341339872       -0.1588410653       -1.3412344024
 O       -10.3803327444        0.9099186740       -1.9233964913
 C       -11.6923700987       -0.9146414644       -1.0439460540
 C        -9.0178620098       -2.3459462736       -1.3906885781
 C        -9.3591996772       -0.9227316703        0.6159123145
 C        -4.9766390128        4.1204725114       -3.2273426982
 C        -4.1482861309        2.4719765013       -1.6077215714
 C        -5.6008102197        9.0306987047       -1.9502856104
 C        -7.4568796045        9.5858335272       -0.2609075592
 C       -10.8231172919        3.9934691514       -4.3370795353
 C       -11.6689694904        6.1504074509       -5.3290292787
 C       -12.1388445974        5.9473446290        1.6513486147
 C       -10.1609035424        4.2592209031        1.6226793868
 C       -14.8898875542        0.5199976444        5.4224361763
 C       -16.1407376970        2.5928934585        6.2149009815
 H       -15.6238444568        2.4125782372        8.8876907899
 H       -14.3972614233        3.5181476049        8.3821053812
 H       -14.0850369177        2.3370514749        9.6190032968
 H       -13.1774579037        1.3907271790        3.9997061263
 H       -11.9852105142        1.8305311525        5.2111238311
 H       -10.9290976558        2.7511804861        3.4949463315
 H       -11.7427072014        4.1008324873        4.2116437414
 H       -13.4942474476        5.5174792370       -0.6261381355
 H       -14.1762137198        3.9359792935       -0.3868598429
 H       -14.3271610693        4.1667034982       -2.8379932353
 H       -12.8096355378        3.2930837872       -2.6143223181
 H       -11.2509123329        7.9126357070       -2.9881203972
 H        -9.9769689897        8.0048286724       -4.2147987680
 H        -9.4759721696        8.1036728744       -1.1852709371
 H        -9.1439597127        9.3237203115       -2.5543803340
 H        -4.3290807764        6.9407214563       -0.2859625443
 H        -4.9910829034        6.3144568717       -1.8155597108
 H        -5.5009003446        5.0097926474        0.8852070237
 H        -4.1033866231        4.6727068971       -0.0630877564
 H        -5.3763135815        0.4879770556       -2.2207201959
 H        -5.7218178282        0.5984573329       -3.9145155920
 H        -6.9181516295       -1.3528123537       -2.7322923335
 H        -8.0875321024       -0.1586050464       -3.4144095332
 H       -12.3253215618       -0.9415515516       -1.9422009065
 H       -12.1914974093       -0.2303721045       -0.3597374472
 H       -11.4742369400       -1.9133164150       -0.5505999290
 H        -8.2634951131       -2.8644231927       -0.7196606920
 H        -8.6472877307       -2.4040328669       -2.3885553700
 H        -9.9333090210       -2.9077615275       -1.2833506033
 H        -8.5335994589       -1.4815316276        0.9590042466
 H       -10.2698696277       -1.5934488169        0.8080245147
 H        -9.3319031723        0.0826769698        1.0652964168
 H        -4.8553512647        3.6706531380       -4.2622430516
 H        -4.0627111971        4.5487964411       -2.8929759616
 H        -5.7392103001        4.8857489720       -3.2631882424
 H        -4.3835024969        1.5255616873       -1.2501036830
 H        -3.6599744256        3.1031560790       -0.8369036842
 H        -3.3238588085        2.2925474791       -2.3889873010
 H        -5.7913770400        9.7744741187       -2.7364602074
 H        -5.0113145783        8.2362459160       -2.5235436400
 H        -4.9016844786        9.5740989586       -1.2932236467
 H        -8.4194733757        9.1938290961        0.0683376565
 H        -7.5355377890       10.5809297265       -0.7247837067
 H        -6.8057131928        9.6182630796        0.6680250481
 H        -9.9106950473        4.0120762049       -4.8852155062
 H       -11.6937931099        3.5165177835       -4.7487588576
 H       -10.7190066080        3.4971232870       -3.3642516188
 H       -10.7481455197        6.4456658738       -5.8200270894
 H       -12.4488079693        7.0158277200       -5.1666560868
 H       -12.2685223827        5.5507145881       -6.0124857897
 H       -11.8630017383        6.1887944046        2.6524862405
 H       -13.1940057101        5.9671331363        1.6589755276
 H       -11.7089779253        6.6865893252        0.9740992925
 H        -9.9346741460        3.1533999094        1.5244878719
 H       -10.0114498963        4.6220545975        2.6310777470
 H        -9.4875638979        4.7960040373        0.9576960328
 H       -15.1304573799        0.5557433838        4.4022713386
 H       -15.6527639033       -0.0684394571        5.8720554168
 H       -13.9980551024       -0.0419825591        5.5542289395
 H       -16.8100219091        1.9865377499        6.8308487480
 H       -16.6170189147        2.6520379392        5.1914670411
 H       -15.9178409484        3.5880417776        6.5341193690
 Na       -9.2116645096        2.9850647304       -1.7378577927
