117

 C       -14.4627222551        2.6958354854        8.7811314995
 C       -14.1175645084        1.6968700570        7.6628691648
 O       -13.2904376568        0.7629836857        7.7255274742
 C       -14.8014691270        1.9440785436        6.1719458805
 C       -13.7422510979        2.7824225882        5.4054369159
 O       -13.7447818322        4.0104505524        5.4959324024
 C       -12.7201836126        2.1184336424        4.4386200593
 C       -11.8797648227        3.1967127943        3.6505814867
 C       -12.5599223481        3.6580565291        2.3895406234
 O       -13.6961578006        3.2775044458        2.2049140574
 C       -11.7419636719        4.6825792911        1.3535384445
 C       -11.9497488037        4.1205431402       -0.0493148101
 O       -11.1467106950        3.3393709816       -0.5889917707
 C       -13.2344707356        4.4619071646       -0.8760665941
 C       -13.0391548399        4.1193658118       -2.3699947747
 C       -12.4725776401        5.3406625912       -3.1682426159
 O       -12.9017853364        6.4523670173       -2.9647289805
 C       -11.1536483780        5.1792671375       -4.0200695928
 C       -10.1627151545        5.9185432658       -3.0580356722
 O        -9.5381740987        5.3979266574       -2.1841729124
 C       -10.1170391768        7.4078723305       -3.1289288417
 C        -9.2809583539        8.1417389349       -2.1149338865
 C        -7.7905176826        7.7875574148       -2.2940952577
 O        -7.4092778387        6.9486700426       -3.0555215418
 C        -6.7213872049        8.5075191734       -1.2739742538
 C        -6.3357495541        7.2462200578       -0.3871074971
 O        -7.0207565231        6.9780073127        0.5771525234
 C        -5.1162191388        6.3930963289       -0.6742256206
 C        -5.2451771353        4.9402035075       -0.0426508352
 C        -6.1131240346        4.0600258863       -0.9872030403
 O        -7.2165963180        3.8039049760       -0.5913075711
 C        -5.4509947824        3.2119616039       -2.2358233703
 C        -6.4124553969        2.1871428881       -2.8908950629
 O        -7.4362888024        2.6055713942       -3.4175028217
 C        -6.1389624133        0.6569585060       -2.8743087310
 C        -7.3464163210       -0.2394753988       -2.6361541591
 C        -8.0440638119        0.0799110341       -1.2925373175
 O        -7.8863485429        1.0911680323       -0.7317935102
 C        -9.3035099999       -0.9145478382       -0.8010016511
 C       -10.6181092077       -0.2447495155       -1.3987554196
 O       -10.5682939288        0.8252386856       -1.9688979733
 C       -12.0365615863       -0.8942312733       -1.2846865944
 C        -9.1678371515       -2.3794331445       -1.2815646708
 C        -9.2599059704       -0.8002504611        0.7290438076
 C        -5.0091940919        4.1943129816       -3.3404713793
 C        -4.2193411741        2.5142652657       -1.5566864729
 C        -5.4707315696        9.0467898442       -2.0543504743
 C        -7.2610020994        9.6304967371       -0.3646546280
 C       -10.8149275526        3.7018711414       -4.4210862790
 C       -11.3720774003        5.9896872264       -5.3206841214
 C       -12.2970376460        6.0373028666        1.4789056379
 C       -10.2135792125        4.6717371630        1.5749633285
 C       -15.0489734474        0.5445072416        5.5277271001
 C       -16.1778079083        2.6300284481        6.3560163294
 H       -15.4346921321        2.4387935277        9.2183344018
 H       -14.4788255900        3.7239550833        8.4843415659
 H       -13.7687861514        2.5014756423        9.6369817863
 H       -13.2757594081        1.4231769997        3.7964781904
 H       -11.9499583856        1.6009642736        5.1217927221
 H       -10.8940767391        2.8114870699        3.3588195259
 H       -11.6471923265        4.0578305957        4.2671902294
 H       -13.4985784052        5.5070500476       -0.8427420063
 H       -14.1185266526        3.8994886674       -0.5436044472
 H       -13.8846043042        3.8693023774       -3.0185660470
 H       -12.4392594982        3.2082170210       -2.3707320799
 H       -11.1466306377        7.6927369477       -3.1447146469
 H        -9.7866997031        7.5897050207       -4.1732644552
 H        -9.5418763278        7.7578496349       -1.1388527648
 H        -9.3255789316        9.2409149922       -2.1795871740
 H        -4.1833101176        6.9829849197       -0.3737526835
 H        -5.0314101781        6.3220303639       -1.7209151057
 H        -5.7178495722        4.9904355633        0.9739987299
 H        -4.2763782809        4.5534049288        0.0645056942
 H        -5.2871206093        0.3080510572       -2.2586640573
 H        -5.7747989046        0.4371772730       -3.9220654610
 H        -7.0625459035       -1.2700994233       -2.7596003769
 H        -8.0805268539       -0.0312358625       -3.4434867520
 H       -12.2719345290       -1.0090155146       -2.3423159137
 H       -12.7626998735       -0.1949597235       -0.8806348325
 H       -12.0005587339       -1.8338548626       -0.7741254157
 H        -8.2515448867       -2.7671090105       -0.9730197158
 H        -9.1963309414       -2.5010175397       -2.3986240360
 H        -9.9229366918       -2.9893187612       -0.7394875393
 H        -8.2049767995       -0.7950385938        1.0319127831
 H        -9.9103756771       -1.4673744957        1.1563285342
 H        -9.5367064875        0.2147538868        0.9475164427
 H        -4.2487921275        3.6530541112       -3.9200231658
 H        -4.4037073255        5.0406105600       -2.8507124681
 H        -5.8210361895        4.5273764398       -3.9818477876
 H        -4.3933601645        2.1657347513       -0.4396089020
 H        -3.4447679598        3.1893653462       -1.5865235520
 H        -3.9224085313        1.6305824117       -2.0270163706
 H        -5.6401480481       10.1037049583       -2.2453945926
 H        -5.3013349820        8.5525368960       -2.9634138557
 H        -4.5311555210        9.0831117901       -1.5470524026
 H        -7.9132140431        9.1887201294        0.4185593209
 H        -7.8548618666       10.3020758788       -1.0238908948
 H        -6.4498194111       10.1744869243        0.0572406719
 H       -10.1730262283        3.9209808246       -5.2175617880
 H       -11.7491358669        3.1934279068       -4.5840694953
 H       -10.2829615173        3.1204979599       -3.6629532537
 H       -10.4492896168        6.1217703454       -5.8838932515
 H       -11.9860475868        6.7925546464       -5.1323862306
 H       -12.0446786206        5.4536141617       -5.9709278803
 H       -12.1531432921        6.4506546404        2.4939863193
 H       -13.4029750740        6.0203492045        1.4037369978
 H       -11.8806047330        6.6809664211        0.7328346449
 H        -9.8968816007        3.6738282555        1.5060534560
 H        -9.9380355866        5.1906560638        2.5040560607
 H        -9.6965019623        5.1257475512        0.7194914836
 H       -15.0411570364        0.5452827257        4.4213367673
 H       -16.0422402181        0.1752507712        5.7927825260
 H       -14.3762617643       -0.2612222225        5.8719208349
 H       -16.7648048453        1.9515605494        6.9558864312
 H       -16.5875905236        2.7365969863        5.3990986988
 H       -16.1012876504        3.6369033542        6.7836076108
 Na       -9.0625711830        3.1402329946       -1.6014108506
