117

 C        -6.0044151553       -4.6744770508        4.6640548952
 C        -6.1281324683       -5.2976523417        3.3235583606
 O        -5.6326002060       -6.3815822079        3.1244109416
 C        -7.0702927706       -4.6739175955        2.2932218217
 C        -8.3690022953       -4.2317816634        2.9454545553
 O        -8.8516810847       -5.1295856293        3.7126746739
 C        -9.0555333563       -2.8846443501        2.7909831880
 C       -10.1790056148       -2.8096446060        3.8557031063
 C       -11.2710969384       -1.8109456993        3.4860926958
 O       -12.0088294984       -1.9142773318        2.5779405981
 C       -11.2104665860       -0.4383897033        4.3803284111
 C       -10.1735087940        0.4564586301        3.7144296355
 O        -9.0722919607        0.5448365051        4.2822009078
 C       -10.6202449434        1.3748434940        2.6316405441
 C        -9.3949203298        2.0168076758        1.9959362573
 C        -9.8611872909        2.9131441608        0.8025910138
 O        -9.5570168068        4.0897138678        0.7880321443
 C       -10.4806115305        2.2430522134       -0.5317466992
 C       -12.0418216481        2.6460323399       -0.4720140084
 O       -12.6711204295        2.8008168491        0.5823950688
 C       -12.8507717242        2.5909204206       -1.9231442578
 C       -13.6331307942        3.8432546235       -2.2137269698
 C       -12.7781115706        5.1038860183       -2.0238110777
 O       -11.7359054150        4.9662274653       -1.4002131439
 C       -13.2392082036        6.5698404101       -2.2958251210
 C       -12.1089351947        7.2410105590       -3.1358263969
 O       -10.9693452779        7.2573480876       -2.7194316859
 C       -12.4934487244        7.7350369678       -4.5730815868
 C       -11.3449365945        8.6752680727       -5.1457539556
 C       -10.9712655907        9.7043390040       -4.0492079556
 O       -11.6936284509        9.8959322023       -3.0447249469
 C        -9.6141970396       10.6172315922       -4.0856574451
 C        -8.7568307840       10.2052474094       -2.9023188652
 O        -7.6876094193        9.7563864390       -3.1483870220
 C        -9.3569708442       10.3212369289       -1.4589270506
 C        -8.2270780997        9.9585172768       -0.3326680635
 C        -8.1966493227        8.4812224642       -0.0720283533
 O        -9.1964180421        7.8917216426        0.1729072717
 C        -6.8011696895        7.7046708659       -0.0558470129
 C        -6.7766905994        6.7844870854       -1.3770136399
 O        -7.7250695656        6.1356433722       -1.7428866333
 C        -5.5848173753        6.7433148246       -2.2624154279
 C        -5.5010234128        8.6137345130       -0.0696969325
 C        -6.7606190428        6.6914243124        1.1168759893
 C        -8.7175725209       10.5608412124       -5.4575782392
 C        -9.9853311469       12.1769827482       -4.0689625724
 C       -14.5741293873        6.6237739034       -3.0360454594
 C       -13.3604156746        7.2481985177       -0.9389865257
 C        -9.6934121705        2.7464575042       -1.7015528289
 C       -10.4595579603        0.6758091872       -0.5393183054
 C       -12.6596642507        0.1004423611        4.3044873021
 C       -10.7337636467       -0.8180150916        5.7986441534
 C        -6.3326122530       -3.5919949307        1.6077136581
 C        -7.5455650712       -5.8219830185        1.3623841702
 H        -6.4880604107       -3.6739697557        4.6706089799
 H        -4.9436645421       -4.4974576317        4.9235324840
 H        -6.4971071575       -5.3323396951        5.3729738974
 H        -9.4595891690       -2.6085745096        1.8481418503
 H        -8.3487091430       -1.9941880766        2.8676812006
 H        -9.7881912472       -2.7085211994        4.8286028179
 H       -10.7235633292       -3.7240880198        3.7606255040
 H       -11.2448996849        2.2129892845        3.0134778928
 H       -11.3368022837        0.9621026445        1.8982176162
 H        -8.6574243682        1.2866336173        1.5853462433
 H        -8.8427055365        2.6444551938        2.6562178492
 H       -13.4090555812        1.6788164904       -1.7842975960
 H       -12.2221333106        2.3409770988       -2.7943266734
 H       -14.4327333145        3.8828028525       -1.5192331906
 H       -13.9896160489        3.7306939824       -3.2370301995
 H       -13.3997546667        8.3227291032       -4.4329627058
 H       -12.6603437928        6.9367351284       -5.2714539077
 H       -11.6732381207        9.1963552181       -6.0335974774
 H       -10.4762601818        8.0714388869       -5.4952600038
 H       -10.2907621291        9.7099505500       -1.2741183016
 H        -9.6586391722       11.3147251133       -1.2550856215
 H        -8.5606964014       10.3619909825        0.6440411974
 H        -7.2848928065       10.3288541564       -0.6314179676
 H        -5.6291628394        7.7046222910       -2.7593602050
 H        -5.5576414763        6.0028961769       -3.1186610096
 H        -4.7296429870        6.7389744088       -1.6822472932
 H        -5.3592054604        9.1707433919        0.8488955046
 H        -5.3078505322        9.2704089165       -0.9160746465
 H        -4.6843125599        7.9414552321       -0.0361227991
 H        -6.8510345032        7.2607110079        2.0925221615
 H        -5.9612455745        6.0483774048        1.1720093361
 H        -7.8593806022        6.2734303956        1.1300614581
 H        -7.7694279220       10.1820337746       -5.1926202713
 H        -8.6917711121       11.5548690699       -5.9147113538
 H        -9.0755447110        9.9179490632       -6.2816071138
 H        -9.0869909720       12.6491069574       -3.7029141065
 H       -10.7734189162       12.3034524258       -3.3977417206
 H       -10.1707101761       12.6360729090       -5.0495896716
 H       -15.4074499227        6.1848669851       -2.4490385003
 H       -14.5526085994        6.1746091451       -4.0295383808
 H       -14.8429199631        7.6860709342       -3.2634008712
 H       -13.9818915540        6.4887125061       -0.3158530658
 H       -13.9316303225        8.1748150807       -0.9070852177
 H       -12.3850011716        7.2765471616       -0.3554787351
 H       -10.2495005791        2.7162600888       -2.6954776013
 H        -8.7352381100        2.2666220692       -1.7756878998
 H        -9.4414895367        3.8162684369       -1.6393624773
 H       -11.3705871839        0.4244566190       -0.0625608105
 H        -9.6100195519        0.2039969984       -0.1278052865
 H       -10.4242970119        0.3035655434       -1.5790412413
 H       -13.4601693032       -0.6298561202        4.4431921383
 H       -12.8318861383        0.6165013656        3.3927278974
 H       -12.8636246668        0.9312299711        5.0392493526
 H       -11.2713536313       -1.7313257502        6.1272775148
 H       -10.9582301686        0.0197182891        6.5016121505
 H        -9.6599129088       -1.0674268311        5.8996418614
 H        -6.3229471089       -2.8149067933        2.3748320809
 H        -6.7486005510       -3.2835064714        0.6072225688
 H        -5.3761706635       -3.9451078983        1.2402432540
 H        -7.9784419276       -6.6215654580        1.8715910046
 H        -6.7224972306       -6.1104966142        0.7654020804
 H        -8.2767691750       -5.4371339409        0.6865480213
 Na       -9.7862618866        5.9897569443       -0.7332593031
