117

 C       -13.8298631510        3.2215540264        8.4034388650
 C       -13.9836997211        1.9666500824        7.6248492129
 O       -13.5779089841        0.8418419681        7.9077256424
 C       -14.8297101975        2.1480059880        6.2194949554
 C       -13.8004455607        2.9517470679        5.4508565959
 O       -13.6478552667        4.1505399798        5.6851205212
 C       -12.9302046450        2.2074849425        4.4075157362
 C       -12.0074369108        3.1295336224        3.5857863996
 C       -12.8250408819        3.8557299491        2.4641970113
 O       -13.9501488930        3.5442769681        2.1110841140
 C       -12.0570208221        5.0110034082        1.6222969606
 C       -11.8349834340        4.3842827659        0.1891880425
 O       -10.8433897588        3.6996443371        0.0124729368
 C       -12.9997970658        4.3348777221       -0.7737360546
 C       -12.5100953636        3.7032111955       -2.1282404296
 C       -12.3036096340        4.7657213857       -3.1943948258
 O       -12.9872525735        5.7405113054       -3.2252433516
 C       -11.0061051992        4.7361870476       -4.0391813820
 C        -9.9511393839        5.4936526352       -3.1650180674
 O        -9.1509151566        4.8959031840       -2.4822904789
 C        -9.9322141669        7.0761676739       -3.1371917404
 C        -9.0352813128        7.7390888471       -2.1384579411
 C        -7.4749354507        7.8514220869       -2.5663880499
 O        -7.0784761346        7.6503392111       -3.6820439797
 C        -6.5360657208        8.3728716803       -1.4328946007
 C        -6.1591482040        7.2587053823       -0.5014932964
 O        -6.8276731156        6.8798353222        0.4205452583
 C        -4.8258268432        6.3663453656       -0.7743686784
 C        -5.1120195525        4.9584299400       -0.2263760353
 C        -6.0631497834        4.0858604085       -1.0424992296
 O        -7.1948153400        3.8814026781       -0.6821893623
 C        -5.3389164154        3.2004653658       -2.2583395697
 C        -6.4050759974        2.1391708982       -2.6348106323
 O        -7.4532904277        2.5743057735       -3.0701830293
 C        -6.2361494740        0.5856623982       -2.5904764785
 C        -7.4579652832       -0.2646560691       -2.3598823971
 C        -8.3671071102        0.0610447019       -1.1903964646
 O        -7.9346913566        0.8714021211       -0.3601094808
 C        -9.6737167992       -0.7577180138       -0.8232967959
 C       -10.9305752386       -0.1058519046       -1.7362503451
 O       -10.9379705276        1.0569942325       -1.9858679173
 C       -12.1474179913       -0.9765607040       -1.9835223422
 C        -9.5325851162       -2.2653699066       -1.1910668862
 C       -10.0868747205       -0.5172468999        0.6407356866
 C        -5.0298316651        4.1306736809       -3.4670261210
 C        -3.9748054364        2.6292849551       -1.7741574181
 C        -5.2442837865        8.9991628365       -2.1632453341
 C        -7.2487762606        9.3912544525       -0.4957011944
 C       -10.4608270471        3.2729401253       -4.4643328102
 C       -11.1976553188        5.5629231191       -5.3637671179
 C       -12.9841312372        6.2071937311        1.5516250292
 C       -10.7647882063        5.4152665871        2.2440625949
 C       -15.1933595250        0.7973165385        5.6153424775
 C       -16.1288732058        3.0370945622        6.3470796942
 H       -14.7856202399        3.5123132234        8.7976078549
 H       -13.4301608734        4.0700767437        7.7556186847
 H       -13.1533553824        2.9887504678        9.2662295336
 H       -13.6363184895        1.6389748936        3.7232357073
 H       -12.2686139432        1.4851018527        4.9131385894
 H       -11.1776191202        2.6106865362        3.1345956310
 H       -11.6342917102        3.8884435800        4.2381338612
 H       -13.2292247076        5.4432558749       -1.1082902309
 H       -13.9621607104        3.8771740822       -0.3782045489
 H       -13.2248757326        2.9507405708       -2.4760526721
 H       -11.6394677322        3.0821369229       -1.9144594269
 H       -10.9391191959        7.4437926690       -2.8758654263
 H        -9.7946245546        7.3894756094       -4.1350720372
 H        -9.0112848295        7.2977390920       -1.0945355782
 H        -9.3607903566        8.7718903528       -1.9588206870
 H        -3.9399326859        6.7524516961       -0.4423533120
 H        -4.6352060994        6.3497839373       -1.8980485231
 H        -5.5451743654        5.1125812492        0.7464725966
 H        -4.0857249619        4.4352537247       -0.2304198477
 H        -5.3870758425        0.2666664402       -1.9155533357
 H        -5.7810035534        0.3230180478       -3.5842267942
 H        -7.0796049891       -1.2671631435       -2.1773297844
 H        -7.9777192441       -0.3610525948       -3.2768982307
 H       -11.8681260675       -1.9479893345       -2.2710213184
 H       -12.8388058394       -0.4186466980       -2.6630845165
 H       -12.5824537301       -0.9848527271       -1.0487492512
 H        -8.6000784913       -2.6391810793       -0.6563576567
 H        -9.4254465786       -2.4913569277       -2.2345841023
 H       -10.3766477788       -2.7851880930       -0.7965858411
 H        -9.1362439578       -0.7989575261        1.2737859627
 H       -10.8939165915       -1.2317147842        0.8552114354
 H       -10.5078994112        0.4530279415        0.8094551535
 H        -4.6100381509        3.6475556582       -4.2945147809
 H        -4.4418045521        4.9954888171       -3.2128553852
 H        -6.0591646246        4.4816455912       -3.7700646714
 H        -4.0092189816        2.1952504530       -0.7045119880
 H        -3.1169421732        3.3336572966       -1.7055678972
 H        -3.6640480327        1.8876641195       -2.4482787106
 H        -5.5425925859        9.8575488273       -2.6774168132
 H        -4.9097081128        8.3348088088       -2.9501919347
 H        -4.3660212542        9.1789911672       -1.5562963395
 H        -8.1062877247        8.9153704762       -0.0463199690
 H        -7.6004748462       10.2390155529       -1.0500752390
 H        -6.5368974615        9.6725073230        0.3019645654
 H        -9.3842170281        3.2670458031       -4.9016959704
 H       -11.1394529091        3.0274629715       -5.2889278345
 H       -10.5101415373        2.6464288304       -3.6066092618
 H       -10.2307475166        5.7832582010       -5.7851815556
 H       -11.6484567838        6.4516646551       -5.1357845972
 H       -11.7150589774        4.8946274626       -6.0945924637
 H       -13.0808378162        6.7099966938        2.4906803880
 H       -13.9790214600        5.8513587390        1.2307837535
 H       -12.7690010616        7.0347475422        0.8153416842
 H       -10.2689622129        4.5677041698        2.7315940239
 H       -10.9229824310        6.1420169110        3.0160921446
 H       -10.1358735515        5.8223994393        1.4544135283
 H       -15.1211678811        0.8255179022        4.4888195855
 H       -16.2170439521        0.4108784662        5.8666307513
 H       -14.4078689500        0.1117848961        5.9244309589
 H       -16.8366354791        2.4927688753        6.9577334270
 H       -16.5604463626        3.2690208973        5.3815250383
 H       -15.9136212085        3.9288020092        6.9096363351
 Na       -9.2323214785        2.8299240206       -1.3461731524
