117

 C       -13.7486159537        3.2655133462        8.4181653439
 C       -14.0580643106        2.0079797128        7.5914131033
 O       -13.5672383989        0.9134643500        7.9100696707
 C       -14.8384479858        2.1644317003        6.2318649821
 C       -13.8263317189        2.9819519124        5.3781055646
 O       -13.5826550737        4.1684615263        5.6391819664
 C       -12.9952928897        2.2468022547        4.3468724967
 C       -12.0854986128        3.2177082484        3.5886037599
 C       -12.8422009318        3.8937145049        2.4496562869
 O       -13.9759702379        3.5676380663        2.1552853116
 C       -12.1792115127        5.0413984692        1.6516346654
 C       -11.8390222223        4.3544179195        0.2640698543
 O       -10.6778547467        3.9602909210        0.1282562021
 C       -12.9145691529        4.2618199505       -0.7837754922
 C       -12.3884847762        3.7039877229       -2.1078320600
 C       -12.2702725154        4.7748080625       -3.1406487838
 O       -13.1374485039        5.6317005526       -3.2596633752
 C       -10.9427928566        4.7824648877       -4.0758959917
 C        -9.8605406525        5.4477744488       -3.2780270875
 O        -9.1491373837        4.8819041224       -2.4591299195
 C        -9.8162148034        6.9968679552       -3.3683792524
 C        -9.0265821610        7.6644737419       -2.2527427072
 C        -7.5072560780        7.9044725692       -2.5559433772
 O        -7.1036837160        7.7426814842       -3.6745751933
 C        -6.5227300948        8.3898502397       -1.4380108732
 C        -6.1573424987        7.1518574054       -0.5838661881
 O        -6.7829738201        6.8746791736        0.4303668324
 C        -4.8661315698        6.2987801737       -0.8157039116
 C        -5.0268518140        4.9259120417       -0.2631182504
 C        -5.9916351973        4.0003766848       -1.0501007648
 O        -7.1141370110        3.8316249910       -0.6384375271
 C        -5.4499998987        3.1959048411       -2.2795502286
 C        -6.4379329062        2.1677731101       -2.6967958559
 O        -7.5053399226        2.4850804115       -3.2207368159
 C        -6.1772139279        0.5993625120       -2.4227276085
 C        -7.4510242849       -0.2667172668       -2.3321604133
 C        -8.3047707980        0.0432034143       -1.0452912974
 O        -8.1004769970        0.8899129662       -0.2600345457
 C        -9.7573772692       -0.8349851856       -0.8068349199
 C       -10.8406705813       -0.1519039911       -1.7004798057
 O       -10.6632936424        1.0261649299       -1.9975456020
 C       -12.0793077373       -0.9457253310       -2.1617512967
 C        -9.6752334516       -2.3058086218       -1.1626118989
 C       -10.1810315703       -0.5270042028        0.5944338336
 C        -5.1933560684        4.0378028309       -3.5661379126
 C        -4.1028359204        2.5954984225       -1.7238354718
 C        -5.2920836626        8.9301328469       -2.1641907545
 C        -7.1250408829        9.4156162191       -0.5036452887
 C       -10.4574773843        3.3495895630       -4.4604106489
 C       -11.2155556457        5.5275498458       -5.4280611865
 C       -13.1934821934        6.2427769186        1.6738418108
 C       -10.8238519666        5.5704295307        2.2925939804
 C       -15.3250942727        0.7910884113        5.7043041665
 C       -16.0710492491        3.1069844017        6.3623900286
 H       -14.6245427544        3.6394629345        8.9729555399
 H       -13.3497760852        4.0902488411        7.8012146355
 H       -12.9722587813        2.9245453640        9.1849002246
 H       -13.6169181974        1.6303330257        3.7389892076
 H       -12.2637886896        1.6287063005        4.8730905673
 H       -11.2376168876        2.6388598066        3.1163352247
 H       -11.6818459619        3.9472390818        4.2682288698
 H       -13.4592448831        5.2402749244       -0.9250205755
 H       -13.6421448688        3.5049669635       -0.4020576213
 H       -13.1790798959        3.0253518549       -2.4998815185
 H       -11.5818068322        3.0042931723       -1.8662135716
 H       -10.8117947624        7.4343977191       -3.3879244150
 H        -9.4287301032        7.1077291493       -4.3976711520
 H        -8.9869742086        7.0085238851       -1.3463650181
 H        -9.4143364560        8.5836675423       -1.8364285562
 H        -4.0107048517        6.8407832345       -0.3051465435
 H        -4.5656330523        6.3795412855       -1.8584898249
 H        -5.5704320758        5.1444261654        0.7160832940
 H        -4.0435289827        4.5057370349       -0.1370029965
 H        -5.5257744978        0.3804273528       -1.5849790532
 H        -5.5599138987        0.2770140073       -3.2495274809
 H        -7.1788101005       -1.2943760067       -2.4249530429
 H        -8.0839051729       -0.0835176895       -3.2220553324
 H       -11.6384317666       -1.8824928978       -2.4870016706
 H       -12.5362955895       -0.4051720053       -2.9287650336
 H       -12.7821581263       -1.0837543528       -1.3590323428
 H        -8.8829331604       -2.7347562798       -0.6526579539
 H        -9.6323683911       -2.5700109911       -2.2338588542
 H       -10.5949425000       -2.7309211549       -0.7680808993
 H        -9.1933654645       -0.5046029336        1.1296689385
 H       -10.8283294662       -1.3215601001        1.0319715958
 H       -10.7790190147        0.4475705481        0.6243170219
 H        -4.6784112161        3.3747181298       -4.2090547337
 H        -4.6013794190        4.9583212741       -3.4420509654
 H        -6.0753072750        4.2487252770       -4.0519295833
 H        -4.2669902696        2.1362454395       -0.6396194648
 H        -3.2799034425        3.2827885630       -1.5845592890
 H        -3.6355449502        1.8499687006       -2.3957202483
 H        -5.4944485518        9.9131886697       -2.6207998006
 H        -5.0522881070        8.3305454502       -3.0196271735
 H        -4.3991180366        8.9727074500       -1.5265759161
 H        -7.6400819771        8.8131205038        0.2327039409
 H        -7.8919265792        9.9251074231       -1.0395456900
 H        -6.4949916519       10.0894993133       -0.0476247833
 H        -9.5682970290        3.3765186741       -5.0961392570
 H       -11.2586992846        2.9847746288       -5.1145138008
 H       -10.2458839770        2.8088936117       -3.4908571135
 H       -10.2429016301        5.7554725248       -5.8854047133
 H       -11.5214217619        6.5039532596       -5.1549533523
 H       -11.8290187995        4.9332804519       -6.1118561003
 H       -13.1838995326        6.6727662520        2.6909645678
 H       -14.2498335817        6.1092200519        1.3216024678
 H       -12.8491610891        7.0818764716        1.0596824003
 H       -10.2310870862        4.7691810473        2.6179792734
 H       -10.9958766843        6.1537572540        3.2137153844
 H       -10.3063274265        6.2056465899        1.5502079438
 H       -15.4180548326        0.7261981581        4.5759150293
 H       -16.3229767993        0.5595734704        6.1394366227
 H       -14.5823341828        0.0180440783        6.0087088843
 H       -16.8409696416        2.7543177826        7.0785606747
 H       -16.5529827708        3.1772944141        5.3942637809
 H       -15.7195890848        4.1193768808        6.7305563027
 Na       -9.0947046276        2.7659135165       -1.2272489460
