117

 C        -1.2711981426        4.6156644013        4.1330693891
 C        -1.7757630490        5.6223482343        5.0885265246
 O        -1.8182540943        5.3119606517        6.2677810046
 C        -2.5718428008        6.8986153367        4.5716911849
 C        -3.8608863491        6.2308583761        3.8374024218
 O        -3.6917193089        5.6321485132        2.7840556523
 C        -5.1814678420        6.3280219544        4.5439935249
 C        -6.3241414517        5.5380977010        3.9954693374
 C        -7.7030090931        6.2481729976        4.2715340652
 O        -7.7602606372        7.4720328020        4.3885876771
 C        -8.9945965390        5.3055524681        4.4135380534
 C       -10.2260258351        6.1519807636        3.9319547553
 O       -11.3239588201        6.0356991296        4.4558332939
 C        -9.9895223425        7.0676817830        2.7349229786
 C       -11.1526836049        7.2143057223        1.7714572832
 C       -11.5599329852        5.8489427725        1.0865704732
 O       -10.8182564674        5.0120578440        0.5893584910
 C       -13.2492836818        5.7537402779        0.8308140347
 C       -13.7657203622        4.3784135587        0.4108405096
 O       -13.6047121030        4.0773189927       -0.7573017251
 C       -14.5535582775        3.4569031646        1.3456859323
 C       -14.9680782955        2.1336756328        0.6377776757
 C       -13.7181431113        1.3680817018        0.1485878554
 O       -12.6617990930        1.6457378323        0.6931399983
 C       -13.9117440237        0.2019064662       -0.9168705813
 C       -13.1440133631        0.4959558489       -2.2460417848
 O       -12.0995543741        1.0952006266       -2.1516700707
 C       -13.7208818738       -0.0989036211       -3.5279223214
 C       -12.5524162283        0.0328000762       -4.6168748754
 C       -12.6899022975        1.1876862570       -5.6211087754
 O       -13.5980511242        1.9935585252       -5.5194406778
 C       -11.4958693089        1.3960533369       -6.6737557948
 C       -10.3211501302        1.9760907041       -5.7376784342
 O        -9.7484457061        1.1216920233       -5.0669009069
 C        -9.9339614697        3.4151581678       -5.6925784889
 C        -8.7252262588        3.5721735018       -4.6628565792
 C        -9.1113309004        3.0402079736       -3.2995091701
 O       -10.2616588295        3.3596255588       -2.9449258285
 C        -8.0961253210        2.3141390569       -2.4033555921
 C        -8.9264421512        1.2665239356       -1.6298698280
 O        -9.4653750787        1.6190352451       -0.5754743744
 C        -9.0489167289       -0.1852834681       -2.0320427112
 C        -6.8848952984        1.7121081324       -3.2229269513
 C        -7.6518845515        3.3266569429       -1.2737412047
 C       -10.9642134431        0.0634773174       -7.3153694953
 C       -12.0442546761        2.4589043533       -7.7963352455
 C       -12.9066217347       -0.9652960009       -0.2658809056
 C       -15.4100202524       -0.1930251508       -1.0977581971
 C       -14.0690986045        6.2360464748        1.9705191762
 C       -13.6716882027        6.6499166956       -0.3109297124
 C        -8.6993283010        4.2924511496        3.2457572197
 C        -8.9513911400        4.6891060163        5.8041749735
 C        -2.8684757997        7.8089983933        5.7629631521
 C        -1.7922237405        7.5593185840        3.4606154250
 H        -1.8910323029        4.3908390646        3.2579006674
 H        -1.2158704826        3.6931906409        4.5564170522
 H        -0.3357926848        4.8957310085        3.7071083986
 H        -5.4199484347        7.4118516082        4.5464600268
 H        -4.9431006269        6.0047301712        5.6040689860
 H        -6.4604507117        4.6133207193        4.4655359634
 H        -6.3651899410        5.3663990089        2.9697098259
 H        -9.0781133865        6.8581417654        2.2214153713
 H        -9.8229141638        8.1052949496        3.1216907017
 H       -10.9022554107        8.0091325780        0.9967976568
 H       -12.0292788148        7.6376450318        2.2901923708
 H       -15.3547387066        4.0275715114        1.6516114971
 H       -13.8564908704        3.1372797908        2.1790740837
 H       -15.6538145250        2.3654528770       -0.2094856609
 H       -15.4731801331        1.5742181224        1.3646226328
 H       -14.4794563440        0.7134096209       -3.6849603898
 H       -14.2982366829       -1.0707988775       -3.2987744754
 H       -12.5114007627       -0.8956601892       -5.1343485414
 H       -11.6474965601        0.0911804964       -4.0197887231
 H       -10.8201074295        4.0012602585       -5.5662936482
 H        -9.5474500357        3.6768532105       -6.6682309258
 H        -8.4568842451        4.6084642569       -4.5635151559
 H        -7.7802707710        3.1198137236       -5.0341817042
 H        -8.1937385022       -0.6589409136       -1.5021590029
 H        -8.8600289937       -0.3195829797       -3.0484635858
 H        -9.8802139604       -0.6853919969       -1.5679972269
 H        -5.9925637359        2.3129536946       -3.3538494915
 H        -7.2241692532        1.3781496776       -4.1284409463
 H        -6.5100741807        0.7648064252       -2.7165846010
 H        -8.4364458485        4.0788770153       -1.0671554166
 H        -6.8304213722        3.9247010018       -1.6445392253
 H        -7.3517775930        2.8387341156       -0.3381584709
 H       -11.8144480984       -0.5822379413       -7.5507566891
 H       -10.2697941886       -0.3895267452       -6.6482600857
 H       -10.2598943395        0.2708191550       -8.1688432867
 H       -12.8257031171        3.0844027971       -7.3598771456
 H       -12.4582401793        1.9204924748       -8.6773669759
 H       -11.1772905647        2.9941363319       -8.2701300276
 H       -13.3377278656       -1.4662874879        0.6161399597
 H       -12.0817189982       -0.3088954628        0.0599429443
 H       -12.3554474811       -1.5767556037       -0.9964975399
 H       -15.9414888207       -0.4412419211       -0.1484622490
 H       -15.4646214561       -1.2396356724       -1.4743599653
 H       -15.9025879840        0.3893352671       -1.8062264231
 H       -15.0947708581        6.0338968528        1.7404170519
 H       -13.9576009429        7.3145313696        2.1880839647
 H       -13.8728281079        5.6377725461        2.8038888171
 H       -13.3493152635        6.3445094741       -1.3017224809
 H       -13.4372162956        7.7159049430       -0.1518154006
 H       -14.8024514113        6.5077577357       -0.3523009098
 H        -7.7893236450        3.7331643745        3.4793880148
 H        -8.4106115271        4.7345254412        2.2624633719
 H        -9.5376155511        3.6438225164        3.0355195064
 H        -9.2784687654        5.4548153509        6.5405137790
 H        -7.8811208873        4.5471076280        6.1175065407
 H        -9.5925877031        3.7916833674        5.9217665819
 H        -3.1312026269        7.2720599022        6.6474498146
 H        -3.7189310829        8.4997816755        5.5814606876
 H        -1.9934972408        8.5194408863        5.9513090807
 H        -1.2496174389        6.8395914008        2.8677113349
 H        -1.1688342357        8.3658799555        3.8228934916
 H        -2.5163930804        8.2395340510        2.9663486374
 Na      -11.3434212988        3.0014329631       -0.8692101126
