117

 C       -13.7254999492        3.3941255826        8.7227061898
 C       -13.9084138678        2.3436330999        7.6026643983
 O       -13.2429213988        1.3545617920        7.5642161637
 C       -14.9287276152        2.6991398502        6.4578373647
 C       -13.9408598488        3.3512243026        5.4181282361
 O       -13.7965829075        4.5512168216        5.3282409754
 C       -13.1807688249        2.4030559371        4.4994719376
 C       -12.1613524388        3.1263179906        3.5455912741
 C       -12.9102892514        3.8476379089        2.3974863058
 O       -13.9052490801        3.3201114039        1.9890843745
 C       -12.4044236756        5.2154399057        1.7107842414
 C       -11.8419743554        4.5356629145        0.4894862978
 O       -10.7242226931        4.0265359772        0.5200093244
 C       -12.7463466800        4.2571210562       -0.7670845314
 C       -11.9344517345        3.8199958186       -2.0297291826
 C       -12.1263852896        4.7992639212       -3.2065448221
 O       -13.0213379575        5.5969605371       -3.2637976014
 C       -10.9741222921        4.8133719758       -4.2753447155
 C        -9.6501260692        5.3690440915       -3.5737661335
 O        -9.0876712642        4.6490140379       -2.7784564943
 C        -9.1845458122        6.8541255332       -3.9396415670
 C        -8.7773786675        7.7031153592       -2.7445560747
 C        -7.2694317968        7.9391250322       -2.8542829987
 O        -6.7229684606        7.7472922781       -3.9121938757
 C        -6.3728219079        8.3328941647       -1.5747408725
 C        -6.0802815815        6.9539747724       -0.8769951559
 O        -6.7404228561        6.6082505860        0.0387202898
 C        -4.9464631075        6.0863925395       -1.4601904465
 C        -4.7268664430        4.7696081029       -0.7535499320
 C        -5.8928929356        3.7954239521       -1.0945365453
 O        -6.8521113396        3.7396637238       -0.3729530479
 C        -5.7414391636        2.7620794645       -2.3000427736
 C        -6.5629881812        1.5394109430       -1.9895211111
 O        -7.6913804483        1.4224798869       -2.4226968946
 C        -6.0705527625        0.4211757967       -0.9980872998
 C        -7.1553519663       -0.6340700791       -1.0472058953
 C        -8.4918941527       -0.0751289173       -0.5669743838
 O        -8.4553384620        0.8868749587        0.1847549758
 C        -9.8402453366       -0.7942265537       -0.8207375288
 C       -10.4668610224       -0.0321128725       -2.1008254038
 O       -10.5785896271        1.2144495063       -2.0302412561
 C       -11.2255181004       -0.7700321418       -3.2538236387
 C        -9.7306795228       -2.2763748000       -1.1323901351
 C       -10.7538593788       -0.5664861146        0.3404319768
 C        -6.3164562619        3.4284625819       -3.5688022438
 C        -4.2204055264        2.4653280846       -2.4180960147
 C        -5.1902560316        9.1352383522       -2.1702693480
 C        -7.0994886125        9.2367477770       -0.5744319125
 C       -10.6598131362        3.3567806955       -4.7769945312
 C       -11.3527247171        5.6463626649       -5.5442313097
 C       -13.5723860906        6.2221789474        1.4464493961
 C       -11.3293005846        5.8359610222        2.6259417837
 C       -15.7210256216        1.4266266357        5.9679486169
 C       -15.9119092344        3.8456432880        6.8369613413
 H       -14.7338280926        3.6241183467        9.1511772890
 H       -13.3665889916        4.2755110783        8.2604693457
 H       -13.0392575763        3.1019130778        9.4347582626
 H       -13.9538873364        1.8631090000        3.9331445903
 H       -12.6488662778        1.4719045893        4.9142177775
 H       -11.5350768892        2.4241115867        3.0065828479
 H       -11.5603494518        3.7985856373        4.0951909711
 H       -13.3934982891        5.1634263414       -0.9694163998
 H       -13.5151571621        3.5143990766       -0.3562837137
 H       -12.1329926818        2.7635879640       -2.1950637206
 H       -10.9083249361        3.9388922211       -1.6820162275
 H        -9.9320035153        7.3844665027       -4.4738359574
 H        -8.3189382717        6.5925764297       -4.5464956419
 H        -8.9896548097        7.2967340600       -1.7195148130
 H        -9.3215358111        8.6718205131       -2.7287273017
 H        -4.0342213817        6.6956489306       -1.2916933323
 H        -5.1691081610        5.9152855401       -2.4310291935
 H        -4.7063270068        4.8987558554        0.3975627491
 H        -3.7609744937        4.4457782954       -1.0651913511
 H        -6.1054599846        0.8431163917        0.0455978299
 H        -5.0590188807        0.0563360481       -1.3363016043
 H        -6.8971978375       -1.4831180941       -0.4533058133
 H        -7.2146002472       -0.9901740286       -2.0948679001
 H       -10.5255504758       -1.4225287396       -3.7756709322
 H       -11.5263599058        0.0540379601       -3.8909121369
 H       -12.0990952144       -1.2675135178       -2.7670251397
 H        -9.5464524354       -2.8293771282       -0.2397465128
 H        -8.9758635444       -2.5794990854       -1.8968896590
 H       -10.7766635548       -2.5894168405       -1.3948321565
 H       -10.2822706614       -0.8972783210        1.1939657747
 H       -11.6465547071       -1.1754652240        0.2062449140
 H       -10.9164214526        0.4869903182        0.5254510954
 H        -5.8736745936        2.9287058742       -4.5175220817
 H        -6.1580360076        4.4836310329       -3.7500791676
 H        -7.4184090122        3.2532776820       -3.5943416169
 H        -3.8696193584        2.1590695987       -1.5238659261
 H        -3.5900536250        3.3037697648       -2.7674964412
 H        -4.0655875166        1.5186059692       -3.0115846925
 H        -5.6635446527       10.0861304330       -2.5207170848
 H        -4.7437524426        8.5879426444       -2.9932219933
 H        -4.4676118781        9.4535845389       -1.4268213837
 H        -7.8832170668        8.6152554867       -0.0724453807
 H        -7.6877692908       10.1058701634       -1.0048216901
 H        -6.4310151061        9.6113063627        0.2264524575
 H        -9.7836308266        3.3597713805       -5.3358225206
 H       -11.5619807297        2.9592886940       -5.2723190868
 H       -10.5376683351        2.6412855563       -3.9444338013
 H       -10.4552032004        5.7159510648       -6.1512092463
 H       -11.6648916523        6.6984318077       -5.2209703517
 H       -12.1858118903        5.3179700092       -6.0775652096
 H       -14.0041814071        6.5199789908        2.4152253172
 H       -14.4318111655        5.9124023735        0.9033435779
 H       -13.2221690708        7.0967268757        0.9892104017
 H       -10.4017726851        5.2944394178        2.4792511712
 H       -11.6241924965        5.8774402334        3.6849256430
 H       -11.0071922877        6.8516797329        2.3636214406
 H       -16.1743918390        1.7383606686        5.0741418558
 H       -16.4399799735        1.1144237068        6.6660182954
 H       -15.0272611903        0.6265249492        5.7644322096
 H       -16.4737554199        3.5316525254        7.7104130878
 H       -16.6258547697        4.1494017884        6.0926941706
 H       -15.4191028848        4.7800026820        7.0745571145
 Na       -9.1539965092        2.9375003821       -0.7928919071
