117

 C       -13.7247698854        3.4037272915        8.7013563578
 C       -13.9470845018        2.4240681190        7.6103634506
 O       -13.1829827243        1.4496004363        7.4609718427
 C       -14.9635732614        2.7920358675        6.4665612895
 C       -14.0073374372        3.3563494684        5.3195563139
 O       -13.7842755364        4.5634612114        5.3502110246
 C       -13.1850145902        2.3941929040        4.5080711985
 C       -12.1762846740        3.1158946692        3.6232938300
 C       -12.9883522771        3.8206119226        2.5163928456
 O       -13.9624089512        3.2663415781        2.0130473549
 C       -12.3826407089        5.1091261026        1.7635370342
 C       -11.8308593114        4.5004567759        0.4352226770
 O       -10.7294282271        3.9917007373        0.6297712641
 C       -12.6665696618        4.3577984183       -0.8408075996
 C       -12.0098314323        3.8472678090       -2.1193070369
 C       -12.1030268776        4.8744205251       -3.2577860908
 O       -12.9663745665        5.7078566666       -3.2927842772
 C       -10.9368526921        4.7956834509       -4.3818910931
 C        -9.7242011919        5.3303340659       -3.6206944103
 O        -9.1257040906        4.7466337529       -2.7143427238
 C        -9.2553590198        6.7476312708       -3.9741000749
 C        -8.7265682963        7.6016010553       -2.7935286180
 C        -7.1766987742        7.8929767708       -2.8424564910
 O        -6.6325356345        7.7181051577       -3.9277594840
 C        -6.4208082238        8.3353494054       -1.5953071601
 C        -6.0741343279        6.9965255361       -0.8823767540
 O        -6.7400309698        6.5861446382        0.0232776309
 C        -4.9164417731        6.0981153124       -1.5550492817
 C        -4.6945154041        4.6877208968       -0.8311624544
 C        -5.8983098853        3.7559242246       -1.0140905155
 O        -6.9596337276        3.9414062348       -0.4041428016
 C        -5.7435446208        2.6935276193       -2.2182046900
 C        -6.6769434982        1.4489054937       -1.8885584367
 O        -7.7209810439        1.2471834296       -2.4487845470
 C        -6.1220826339        0.4428178194       -0.8906602199
 C        -7.0498565560       -0.7132047859       -0.7852001922
 C        -8.4544404660       -0.1024009083       -0.4883316718
 O        -8.5177661581        0.9535335948        0.1254643255
 C        -9.8718004926       -0.7551693994       -0.8871296734
 C       -10.4521924057        0.1239591161       -2.0520976656
 O       -10.5222469134        1.3303149843       -2.0595875269
 C       -11.0022925627       -0.7862522985       -3.2199680279
 C        -9.6405227537       -2.2489739627       -1.2376999295
 C       -10.7489244520       -0.5488962426        0.3472824180
 C        -6.3837825060        3.4076948609       -3.5073223084
 C        -4.3235422339        2.2524767921       -2.5262184071
 C        -5.1157578350        9.0834988493       -2.1084840891
 C        -7.1186323749        9.2449707272       -0.6015134018
 C       -10.7152275984        3.3288539385       -4.8031070869
 C       -11.3162674626        5.6257134877       -5.6241815064
 C       -13.5825961493        6.0919286809        1.5242090738
 C       -11.1994252644        5.8303426860        2.5079078035
 C       -15.7697923209        1.5645356019        6.0205248257
 C       -15.9394368182        3.8909794376        6.9782594874
 H       -14.6964933660        3.5228163212        9.1859336563
 H       -13.4193437054        4.3612392069        8.2503419849
 H       -12.9559076875        3.0915996706        9.4054843895
 H       -13.7783841312        1.6605359228        3.9916683849
 H       -12.6014971223        1.6777605055        5.1214788816
 H       -11.5271051565        2.4457443464        3.1094042154
 H       -11.5979277753        3.8588016144        4.1873463229
 H       -13.3334982272        5.2448154547       -0.9432191938
 H       -13.4075037631        3.6224643670       -0.3090734297
 H       -12.6216114175        2.9625884486       -2.4239556223
 H       -11.0250871966        3.5393228901       -1.7948541243
 H       -10.0092528543        7.3166669433       -4.4637383716
 H        -8.4109821008        6.4557125159       -4.6084123474
 H        -9.0969488617        7.2706177153       -1.8067772944
 H        -9.2023332132        8.6388788996       -2.8939761757
 H        -3.9911974146        6.6834636597       -1.4886458499
 H        -5.3265134082        5.9504682365       -2.5664172066
 H        -4.5848249376        4.8731543754        0.2348626130
 H        -3.7045267714        4.2254656990       -1.1562117571
 H        -6.2175406255        0.9792970545        0.0795015305
 H        -5.0735030076        0.2145595110       -1.1872152558
 H        -6.6875956113       -1.4332363754       -0.0802005972
 H        -7.0947010873       -1.1885108140       -1.7478232949
 H       -10.2362822963       -1.4360776484       -3.4843315090
 H       -11.1868586436       -0.0778442011       -4.0802776173
 H       -11.8688285207       -1.2668797254       -2.8463699868
 H        -9.3743621654       -2.8165086305       -0.2748383206
 H        -8.8310381032       -2.4196123825       -1.9160452892
 H       -10.5683536380       -2.7156172802       -1.5635055152
 H       -10.1141708777       -0.5245446670        1.3116856430
 H       -11.4755877024       -1.3876705974        0.3625115324
 H       -11.2050797796        0.4042690888        0.3669805751
 H        -6.1319707603        3.0084762379       -4.4686135333
 H        -6.2700565464        4.4462513763       -3.6561578412
 H        -7.4796269877        3.2337969259       -3.3105644025
 H        -3.7591358026        1.9149211719       -1.5325938159
 H        -3.6442068563        3.0180137112       -2.9883158038
 H        -4.3701278454        1.3532335651       -3.0731599063
 H        -5.3747173168       10.0123941219       -2.5874674698
 H        -4.5486023098        8.4117427915       -2.7644547394
 H        -4.5233071214        9.3060293412       -1.2530113078
 H        -7.6166730056        8.7082703098        0.2086625559
 H        -7.8984213341        9.9196903757       -1.0029848195
 H        -6.2967578530        9.8672215353       -0.1075394351
 H        -9.9055088018        3.1718408026       -5.5798027658
 H       -11.6957670734        2.8756839476       -4.9709853556
 H       -10.3976428266        2.7589888490       -3.9609824639
 H       -10.4730484220        5.6716371450       -6.3033988248
 H       -11.6697677007        6.5908335907       -5.3286193997
 H       -12.1565273190        5.2203593397       -6.2224548148
 H       -14.0455025393        6.5203200630        2.3985595352
 H       -14.4222941713        5.6178079202        1.0736430203
 H       -13.3068071911        6.9015225555        0.8438792286
 H       -10.1872009314        5.3603358137        2.4717001400
 H       -11.4894813269        6.0732699258        3.5080795717
 H       -10.9716507845        6.7565368317        2.0294498556
 H       -16.5076025651        1.8692945582        5.3252609245
 H       -16.2243741912        1.0881152171        6.8651229371
 H       -15.0709781661        0.8866841287        5.5591473659
 H       -16.2636772366        3.6869336171        7.9616679483
 H       -16.8278773618        4.0748225546        6.3617265791
 H       -15.5001675552        4.8366260516        7.0034879500
 Na       -9.2221733290        2.9784035871       -0.8125280225
