117

 C       -13.6113012020        3.4041055304        8.9710094086
 C       -13.8515211010        2.5928085731        7.7085282752
 O       -13.2076265261        1.5666502066        7.4363659719
 C       -14.9467249054        3.0241179617        6.6225838176
 C       -14.1262863458        3.5654893445        5.3721491594
 O       -14.0893190327        4.7796921689        5.2106860912
 C       -13.3371564802        2.5379405440        4.6498197362
 C       -12.2166533943        3.0679607152        3.7487263705
 C       -12.9639573133        3.6832714334        2.4918918748
 O       -14.0120626975        3.1713567343        2.1482624159
 C       -12.4203423139        4.9618581531        1.7016707885
 C       -11.9309468837        4.4706062784        0.3098831062
 O       -10.8727079079        3.8600404506        0.2051354272
 C       -12.7225573482        4.7996701872       -0.9660788395
 C       -12.3774647960        4.0081107401       -2.2264687018
 C       -12.1327583349        5.0681049750       -3.3260760248
 O       -12.7225609955        6.1160817366       -3.3220647948
 C       -11.0162376072        4.7474448686       -4.4262917098
 C        -9.8291503957        5.4046541218       -3.6170768712
 O        -9.3752203270        4.8171115637       -2.6538251848
 C        -9.2664227444        6.8113964109       -4.0317764315
 C        -8.4603952801        7.3602410381       -2.8031004491
 C        -7.0010223041        7.6753462127       -2.9978386570
 O        -6.4165930439        7.4877940921       -4.0426253231
 C        -6.2521664053        8.2350449913       -1.7107017873
 C        -5.9732416679        6.9360375812       -0.8669511415
 O        -6.5822351808        6.6852490760        0.1324447703
 C        -4.8422592340        5.9710805176       -1.4519437700
 C        -4.7894790560        4.5391005076       -0.8112090837
 C        -6.0163978280        3.6543575176       -1.2504065567
 O        -7.0767956655        3.9489010392       -0.6945480599
 C        -5.9048623702        2.5476649287       -2.3684363221
 C        -6.6367097183        1.1798458346       -1.8622478945
 O        -7.6432661231        0.8539406964       -2.4216703536
 C        -6.0656241596        0.4281986871       -0.6692859165
 C        -7.1103654583       -0.4613530566       -0.0477878668
 C        -8.5669015198        0.1006202780       -0.1159774653
 O        -8.8326106097        1.1515996375        0.4263182938
 C        -9.7382078385       -0.7485615402       -0.7938136962
 C       -10.1893050001        0.0973346315       -2.0203014310
 O       -10.3465795092        1.3239672022       -2.0166074669
 C       -10.4692043438       -0.5995378631       -3.3729346154
 C        -9.3966854699       -2.2555076831       -1.0649983614
 C       -11.0114714948       -0.7093924995        0.1349779872
 C        -6.6129955999        3.0954953559       -3.5978468859
 C        -4.4364441964        2.2124810898       -2.5958990767
 C        -4.9610725115        9.0643698827       -1.9919533440
 C        -7.2124593330        9.1462865154       -0.8959594415
 C       -10.6855114720        3.2711394246       -4.4975918431
 C       -11.3802256751        5.4000318110       -5.7677831279
 C       -13.6155799514        5.9791517490        1.4692337077
 C       -11.2034502318        5.5876606729        2.5299528005
 C       -15.7565580431        1.7432601835        6.2547892043
 C       -15.8863168257        4.1328094868        7.0477402577
 H       -14.3429711782        3.0235248964        9.7354179506
 H       -13.8458580892        4.4180549875        8.7396318934
 H       -12.6291733689        3.3304795428        9.3086299626
 H       -13.9533243944        1.8558139044        4.0631784245
 H       -12.9046013256        1.7324828513        5.3650031547
 H       -11.5413040898        2.2799885672        3.3760070231
 H       -11.6270531394        3.8442083791        4.2261061080
 H       -12.7436114847        5.8671695743       -1.1054902113
 H       -13.7753289093        4.6785722320       -0.6375689759
 H       -13.2420036072        3.3933509967       -2.4338837853
 H       -11.4902465420        3.3960152590       -2.0517117705
 H       -10.0754637105        7.4264855707       -4.3749745196
 H        -8.4586727681        6.6337364951       -4.7773142725
 H        -8.5583912893        6.5881363006       -2.0165946741
 H        -8.8649539320        8.2873949299       -2.3833505305
 H        -3.9093488527        6.5483332382       -1.2923663883
 H        -5.0734965714        5.8799152500       -2.4370602969
 H        -4.7786826356        4.6040737708        0.3055018751
 H        -3.8220680132        4.1190984594       -0.9848589216
 H        -5.7040881492        1.2150909645       -0.0071351367
 H        -5.2881397022       -0.2350725995       -1.0614930602
 H        -6.8067751620       -0.5140502556        0.9978075088
 H        -6.9258538908       -1.4926415856       -0.4515519623
 H        -9.5220515716       -0.7246173760       -3.8432783320
 H       -11.0188578665        0.2279242907       -3.9548967822
 H       -11.0446931891       -1.5192723147       -3.2089911708
 H        -8.9136092470       -2.7687581994       -0.2358353458
 H        -8.6538942260       -2.2677411863       -1.8331252734
 H       -10.2648918384       -2.8015728305       -1.4379992898
 H       -10.8320446000       -1.2930430661        1.0146458578
 H       -11.8635058662       -1.0386099094       -0.4530750657
 H       -11.1887827856        0.2501820746        0.4716263033
 H        -7.2934447512        2.3447376803       -4.1043636591
 H        -6.0037407034        3.4611132259       -4.3782960113
 H        -7.2846381691        3.9957794156       -3.3295334270
 H        -3.8652094127        1.9340123845       -1.6788174276
 H        -3.9480700482        3.1172272240       -2.8924867401
 H        -4.3503133441        1.5619954121       -3.3966154949
 H        -5.4290010177       10.0463039155       -2.2028228464
 H        -4.4478077186        8.7228827561       -2.9198012118
 H        -4.2516355897        9.0265810003       -1.1668531550
 H        -7.9976199561        8.6294427494       -0.4194432592
 H        -7.7046339189        9.9310854515       -1.4409338799
 H        -6.6835749236        9.6064751244       -0.0463227569
 H       -10.0800112718        3.0844547816       -5.3689998607
 H       -11.5450761564        2.5557130602       -4.5060181151
 H       -10.0493649124        2.9424458989       -3.7135897007
 H       -10.5506589095        5.4068618742       -6.4484169411
 H       -11.9168508093        6.3811539856       -5.5937904137
 H       -11.9902582258        4.8002026672       -6.3918785831
 H       -14.0263910882        6.3272667382        2.4589117741
 H       -14.5079074709        5.6017435009        1.0043352355
 H       -13.3391272803        6.8831414803        0.9435879040
 H       -10.3824177341        4.8636958604        2.7045182067
 H       -11.5653133436        5.9267777251        3.4961875735
 H       -10.6770553939        6.3827095301        2.0204512599
 H       -16.2170183346        2.0025811635        5.3075155622
 H       -16.5486008469        1.5334291142        6.9827981757
 H       -15.0435230193        0.8794385611        6.1351057418
 H       -16.4602165586        3.8547782290        7.9591265907
 H       -16.5941047544        4.4862438871        6.2418222667
 H       -15.3815444960        5.0393523296        7.3987020426
 Na       -9.0685564048        3.0242561609       -1.2623670157
