117

 C        -1.2268907572        4.7151686497        3.9163980033
 C        -1.8227205016        5.6139007575        5.0039258586
 O        -1.7596206029        5.4498038078        6.2209546179
 C        -2.6041374320        7.0075791625        4.4944036967
 C        -3.8536503238        6.3128172323        3.8349851322
 O        -3.6622307357        5.7302010758        2.7463130516
 C        -5.2112579471        6.3369440550        4.5915720573
 C        -6.2870541645        5.6621886145        3.8870089276
 C        -7.6832976319        6.3522987824        4.2222416517
 O        -7.7283265357        7.5784385480        4.3478867313
 C        -8.8953507508        5.3850923408        4.3120230782
 C       -10.2168807205        6.1331633181        3.8204088037
 O       -11.2684948234        6.0726092280        4.4588557641
 C       -10.0683153923        7.1575576236        2.6510139286
 C       -11.1955615985        7.2373973318        1.6328778941
 C       -11.7098902640        5.9579199460        1.0508426553
 O       -10.8479863074        5.0690569148        0.8837082920
 C       -13.2959364917        5.7503994830        0.9286952728
 C       -13.7593736044        4.3561945021        0.4369583207
 O       -13.5282365075        3.9649281270       -0.7300685498
 C       -14.7268268625        3.4283167333        1.3296760357
 C       -14.9304990074        2.1171876278        0.5955404196
 C       -13.6817478237        1.3161948170        0.2149755128
 O       -12.5611424522        1.5185273419        0.6310260778
 C       -13.8580975592        0.1368755848       -0.7379730881
 C       -13.1776847447        0.4895264842       -2.2052796717
 O       -12.2184280979        1.2038766392       -2.2806485323
 C       -13.5597592709       -0.2445678950       -3.5912665050
 C       -12.4986074438       -0.0872634660       -4.7468230317
 C       -12.6371292730        1.1679792175       -5.5573460325
 O       -13.3480724863        2.1533709035       -5.3242308636
 C       -11.4660204416        1.3166059718       -6.6796960798
 C       -10.3068513999        1.8835390370       -5.8186367540
 O        -9.8602706621        1.0777106973       -5.0277306227
 C        -9.9148908983        3.3792071445       -5.6634005964
 C        -8.6777329188        3.5507580911       -4.7422941869
 C        -9.1420695425        2.9986825001       -3.3176980577
 O       -10.2424646176        3.2882549637       -2.9065168279
 C        -8.1759933029        2.2383865808       -2.3145560092
 C        -9.0483825876        1.2341661237       -1.5026484199
 O        -9.7220215640        1.5366615347       -0.5829263502
 C        -9.2039647885       -0.3032813589       -2.0230772196
 C        -6.9788509963        1.6038912179       -3.0226493272
 C        -7.5933972167        3.2450474875       -1.3177591388
 C       -11.0999177633       -0.0216587351       -7.2729849399
 C       -11.9554786843        2.3410754517       -7.7538792080
 C       -12.9993831674       -0.9794106479       -0.1333133660
 C       -15.2837191684       -0.3580768427       -1.0378474624
 C       -13.9483711965        6.2932792794        2.2530481031
 C       -13.6696537869        6.7803305671       -0.3600385947
 C        -8.6953924289        4.1541130909        3.2390198392
 C        -9.0243852231        4.8788009611        5.7535903755
 C        -2.8089192716        7.8888382514        5.6745011789
 C        -1.8641127380        7.7201424796        3.3050544158
 H        -1.6531223946        4.7611055757        2.9415678882
 H        -1.1974335799        3.6396746713        4.0347391170
 H        -0.1972245787        5.0879529634        3.8270105414
 H        -5.4880661721        7.3985467237        4.8034302170
 H        -5.0241625935        5.8694830860        5.4693610992
 H        -6.4161511488        4.6512661375        4.1900011069
 H        -6.3007889411        5.6902307975        2.8539165393
 H        -9.0690014356        7.0604704165        2.1310502022
 H       -10.0197750823        8.1865961086        3.0352026322
 H       -10.7519352700        7.7669587696        0.8205374909
 H       -11.9760109804        7.9510639682        1.9361684376
 H       -15.6241878566        4.0044811881        1.4663829031
 H       -14.2528705111        3.1547868239        2.2496995207
 H       -15.4920556873        2.3031795996       -0.3295454607
 H       -15.5902304625        1.5201387847        1.2271020863
 H       -14.5791376674        0.0091744461       -3.9045137412
 H       -13.5575454269       -1.2573613267       -3.2056133443
 H       -12.7444327804       -1.0270645019       -5.3373632286
 H       -11.4304726676       -0.1933709365       -4.3437206204
 H       -10.7881776029        3.7496642312       -5.1990881503
 H        -9.7842657061        3.9243710784       -6.5595480405
 H        -8.3894862679        4.6194468941       -4.6407903410
 H        -7.7561944054        3.0999863891       -5.1595491705
 H        -8.4260666075       -0.9075446119       -1.6250109578
 H        -8.9587904778       -0.3504056676       -3.1671149462
 H       -10.1117625875       -0.7591234789       -1.6473287117
 H        -6.1402634792        2.2845424465       -3.2205180360
 H        -7.3189968937        1.2416564365       -4.0087539231
 H        -6.6308631793        0.7845868891       -2.5462046936
 H        -8.2981553696        4.0398533830       -1.0179582331
 H        -6.7455211958        3.8431590409       -1.8946464004
 H        -7.1963786050        2.7866038530       -0.3938079232
 H       -12.0639350602       -0.5198880248       -7.5478950709
 H       -10.4908557193       -0.5900033648       -6.6371913714
 H       -10.4808163199        0.1257764390       -8.1240378162
 H       -12.3301204043        3.2352640463       -7.2437681147
 H       -12.6890684486        1.9527228293       -8.5491813682
 H       -11.0522829061        2.5040799736       -8.3544967503
 H       -13.5195480422       -1.2850272480        0.7943303416
 H       -11.9952959384       -0.6159086108        0.0502343692
 H       -12.8296026192       -1.7594377349       -0.8599663701
 H       -15.8020267671       -0.4631805091       -0.0742738259
 H       -15.4429751242       -1.3478066883       -1.4047050551
 H       -15.7334103608        0.3047633151       -1.7169092469
 H       -14.9868088507        6.0470160511        2.2381318725
 H       -13.8596205581        7.4284490187        2.2442788902
 H       -13.4730567459        5.8997011229        3.1157591927
 H       -13.2244374841        6.5370458648       -1.3562723532
 H       -13.4638408135        7.8588754788       -0.1501654924
 H       -14.7498949451        6.6391040130       -0.5126234366
 H        -7.6772899587        3.7842066577        3.1641332726
 H        -8.8771517081        4.4278236127        2.1895908181
 H        -9.4740463736        3.3968989610        3.4641774861
 H        -9.6782653808        5.5929904987        6.3240849390
 H        -8.0674221858        4.8897091940        6.3394381314
 H        -9.5586536095        3.9156319171        5.7250693953
 H        -2.9491479262        7.3212990904        6.6273584070
 H        -3.6813004731        8.5200229175        5.6097052134
 H        -1.9380559982        8.5975894020        5.7678939399
 H        -1.7605565366        6.9635531888        2.5616579696
 H        -0.9424127822        8.1054410285        3.5879883293
 H        -2.3448779712        8.6467951671        3.0373192384
 Na      -11.2265554466        2.9885430779       -0.8133415367
