117

 C       -13.6861213860        3.4993178711        9.2117389402
 C       -13.8926007244        2.6075460589        7.8763608807
 O       -13.2346050072        1.6495668343        7.6624261096
 C       -14.9005643823        3.1485906224        6.7776180581
 C       -14.1537215323        3.5964518848        5.4445392839
 O       -14.1857641274        4.7183800051        4.9961414469
 C       -13.2849811972        2.5073915670        4.7023972951
 C       -12.3898846430        3.1190483846        3.6459205244
 C       -13.1251932386        3.6111678276        2.3551046691
 O       -14.0720777348        3.1140297627        1.8084555778
 C       -12.4095594474        4.9570551449        1.7013251484
 C       -12.0285140335        4.5248136567        0.2441454939
 O       -11.0094101283        3.8745638438        0.0989066115
 C       -13.0192657424        4.7763359963       -0.9176553473
 C       -12.5627293372        4.2044024567       -2.2558267965
 C       -12.1398967614        5.1993072478       -3.3674120723
 O       -12.5987910549        6.2919312872       -3.5189519797
 C       -10.9963070958        4.7250518354       -4.4328491401
 C        -9.7545847753        5.3803032675       -3.6163358957
 O        -9.1838894273        4.8400834034       -2.6743106427
 C        -9.1586744823        6.7405898532       -4.0757905778
 C        -8.5196034948        7.5335673479       -2.9464330346
 C        -6.9904584629        7.5871104318       -3.0142327411
 O        -6.3642958997        7.3203845257       -4.0035056412
 C        -6.2440156861        8.1529090647       -1.7325240197
 C        -5.8665117072        6.8775904247       -0.8800752519
 O        -6.3541190954        6.6914367506        0.1956664169
 C        -4.7827066847        5.8767564020       -1.4352180400
 C        -4.9308159236        4.5088182909       -0.7688697349
 C        -6.0792349267        3.6651389447       -1.2994700489
 O        -7.1703795736        3.7294779636       -0.8261521636
 C        -5.8376905058        2.5018599809       -2.4432952526
 C        -6.5732843433        1.2873231037       -1.7947421972
 O        -7.5118340491        0.7382341647       -2.3792474145
 C        -6.1277757772        0.6831369282       -0.3747136812
 C        -7.2440542534       -0.2924764106        0.2362899977
 C        -8.6663732466        0.2385033010        0.0433101139
 O        -8.9746757189        1.2998756967        0.5965716205
 C        -9.7078877761       -0.7332840684       -0.7087926650
 C       -10.0977935487       -0.0213764972       -2.0842352680
 O       -10.4811240991        1.1461337319       -2.0834609566
 C       -10.1077157209       -0.7440841348       -3.3836453760
 C        -9.1883943966       -2.1537622319       -1.0194457946
 C       -11.0462524987       -0.7374680806        0.0425497435
 C        -6.5704365114        2.8976359269       -3.7606669164
 C        -4.3297862803        2.2371177462       -2.7815291633
 C        -4.9690283885        8.8249109864       -2.2542841632
 C        -7.0539502597        9.0585592638       -0.8147245568
 C       -10.8832638922        3.2001567102       -4.6372006347
 C       -11.2336613383        5.4339682634       -5.7826603455
 C       -13.5117905742        6.0406384507        1.8294706175
 C       -11.0684719257        5.5547680073        2.3346275871
 C       -15.7567199828        1.9163654694        6.3085600579
 C       -15.7920336971        4.2717968272        7.3277506238
 H       -14.4034011494        3.3075087182        9.9735532065
 H       -13.7461840957        4.5529467279        8.9221538704
 H       -12.6694537685        3.2781662558        9.5912439381
 H       -13.8651321005        1.7106296549        4.1809905845
 H       -12.7054722954        1.9180532085        5.3431006352
 H       -11.6713549676        2.4573695184        3.1917542894
 H       -11.7961309666        3.9399096606        4.0321014327
 H       -13.2424650085        5.8994533512       -0.9216597815
 H       -14.0090617112        4.4417912672       -0.6003786514
 H       -13.5167374408        3.7586006716       -2.6377695713
 H       -11.7818012731        3.3977213999       -2.1706317390
 H        -9.9257983226        7.3872632795       -4.5672112882
 H        -8.4027816117        6.4691558696       -4.8039126982
 H        -8.8199942212        7.0414186076       -1.9953287406
 H        -9.0160878079        8.5386616614       -2.9392311367
 H        -3.8560281157        6.3564385466       -1.1518292448
 H        -4.8743194013        5.8420505320       -2.5972554233
 H        -5.0954211033        4.6573846940        0.2963661066
 H        -3.9564467758        3.9759367810       -0.7547751612
 H        -6.0458901757        1.5583618544        0.3082014280
 H        -5.1628371756        0.1228307457       -0.5129867290
 H        -6.9802686326       -0.4121279956        1.2895225440
 H        -7.1029967232       -1.2467522287       -0.2093905682
 H        -9.0205280433       -0.8093783366       -3.6540630604
 H       -10.6221741555       -0.1813833812       -4.0533346642
 H       -10.5536668308       -1.7140916179       -3.1668619519
 H        -8.8805542499       -2.6286882763       -0.1009052491
 H        -8.2881148400       -2.1940657998       -1.7109843869
 H        -9.9662521548       -2.7800729297       -1.4871266151
 H       -11.2065970104       -1.6347395054        0.5856003850
 H       -11.8796139900       -0.3991195303       -0.5757263024
 H       -11.0512010611        0.1290378339        0.8132944393
 H        -7.1719254872        2.1281241085       -4.2233300359
 H        -5.7583517095        3.1217434842       -4.5254085591
 H        -7.1504874543        3.7660458274       -3.7737449358
 H        -3.7903340567        2.0694322362       -1.9043773347
 H        -3.8069836301        3.0892196797       -3.3220674539
 H        -4.3215156565        1.3986469420       -3.6379768345
 H        -5.1803350029        9.6929899541       -2.8455347038
 H        -4.4902718276        8.1020308864       -2.8702649028
 H        -4.3327658100        8.9345288914       -1.3733970169
 H        -8.1446468281        8.7717113757       -0.6191415887
 H        -7.1669261276       10.0983725601       -1.2172041060
 H        -6.6314399682        9.1771330265        0.1847697471
 H       -10.0995270834        2.8907250854       -5.3542646205
 H       -11.7689832454        2.8509520894       -5.1553407378
 H       -10.7002182256        2.5066971185       -3.7599725201
 H       -10.4652367532        5.1917975685       -6.4790511121
 H       -11.3895570335        6.4963717263       -5.6804657817
 H       -12.0133576783        4.9831817615       -6.3534568516
 H       -13.7064354114        6.2875967735        2.8344403749
 H       -14.4682439998        5.7517341032        1.3608594133
 H       -13.2619817653        6.9817279898        1.3633024850
 H       -10.1887732069        4.9486813911        2.2132309534
 H       -11.1708859205        5.7443030287        3.4185254475
 H       -10.8525503189        6.5321485868        1.8432326368
 H       -16.1722985055        2.0950909250        5.3333396906
 H       -16.5605041098        1.9073150872        6.9965813497
 H       -15.2086775968        1.0405431322        6.3807320375
 H       -16.3167512160        4.0056719963        8.2256087877
 H       -16.5259565039        4.4344594046        6.6039268611
 H       -15.3443825074        5.2256877280        7.6064087023
 Na       -9.2873283843        2.9581780203       -1.2173341946
