117

 C       -13.7733305426        3.6056691293        9.2231278269
 C       -13.8341821346        2.7875190383        7.9021733079
 O       -13.1981835867        1.7938608078        7.7211400215
 C       -14.8713059169        3.2766286003        6.8412244137
 C       -14.1942715611        3.6341800689        5.4454827613
 O       -14.2100748120        4.7676713866        5.0370663768
 C       -13.5403418936        2.5286830630        4.5962792707
 C       -12.4445128673        3.1371174917        3.6600456227
 C       -13.0203118664        3.6177313043        2.2928567999
 O       -13.9270488304        2.9807783071        1.8220315892
 C       -12.4707467757        4.9871557273        1.6180600146
 C       -12.3036410800        4.6656124181        0.0850859711
 O       -11.2198275818        4.2128971061       -0.1958713989
 C       -13.3069929009        4.9068860115       -1.0483883981
 C       -12.8523793027        4.3043032352       -2.3182916956
 C       -12.2519281663        5.3421756780       -3.3570019606
 O       -12.5160990123        6.5123505855       -3.3056600914
 C       -11.0593032358        4.8897086772       -4.3418155206
 C        -9.7078646524        5.3789072512       -3.6825904758
 O        -9.0713483050        4.6225227457       -2.9693503717
 C        -9.1718992214        6.7457297025       -4.1032510942
 C        -8.4536349046        7.6325042540       -2.9451076222
 C        -6.9200714154        7.3845482113       -2.9888666167
 O        -6.3694449106        6.6835499247       -3.8068383117
 C        -6.1334128928        8.0181064542       -1.8008908390
 C        -5.6974876716        6.7770070048       -0.9207562367
 O        -6.0750946531        6.7142037495        0.2186323048
 C        -4.8621586387        5.6596044835       -1.6007584167
 C        -4.8622397523        4.3576375811       -0.7790725552
 C        -6.0860677199        3.6475902194       -1.3575735681
 O        -7.1978717241        3.9838890125       -0.9960507645
 C        -5.9054328150        2.3805644831       -2.3279024597
 C        -6.5948625196        1.2289160170       -1.6596622274
 O        -7.3000306061        0.4492220400       -2.2915914605
 C        -6.3917435607        1.0900875105       -0.1417987375
 C        -7.3060076305       -0.0670003068        0.3510419221
 C        -8.7059505487        0.2567188626        0.0005972901
 O        -9.1040150255        1.3827090393        0.3534980753
 C        -9.5980721669       -0.7684810722       -0.6576911536
 C        -9.9358633902       -0.1987093772       -2.1232160611
 O       -10.4632900784        0.8817283819       -2.2211638587
 C        -9.5689712505       -1.0647918594       -3.3394144380
 C        -8.9932639011       -2.1599943280       -0.7254020284
 C       -10.8815248728       -0.6980693184        0.1178073921
 C        -6.4601056479        2.7434613991       -3.6952063215
 C        -4.4418089304        1.9579506045       -2.4761702863
 C        -4.8233483995        8.6368622287       -2.4487170595
 C        -6.8587888706        9.0833308083       -1.0124475924
 C       -10.8900124381        3.3958997416       -4.5370827635
 C       -11.2932429081        5.5210873968       -5.7468789053
 C       -13.4666727271        6.2146716479        1.7964554818
 C       -11.0623683662        5.3468509843        2.2258292709
 C       -15.9312147176        2.0251304365        6.8045380131
 C       -15.6008401601        4.5736517851        7.1916279165
 H       -14.7190642599        3.7679921567        9.5859620004
 H       -13.2658046528        4.5628172684        9.1012354761
 H       -13.2819959235        2.9042304412        9.9435960549
 H       -14.2894254568        1.9574083353        3.9431221130
 H       -12.9768269833        1.7585317875        5.1868547743
 H       -11.7165509484        2.4184547574        3.3293866184
 H       -11.8541561071        3.9380241863        4.1429189479
 H       -13.3518613634        6.0090814560       -1.1174032583
 H       -14.3302003637        4.6116674977       -0.7052769342
 H       -13.6957189781        3.8540039578       -2.8627810849
 H       -12.0940116473        3.5437177665       -2.1971682416
 H        -9.9322054460        7.3560065384       -4.5907656778
 H        -8.4017126752        6.5301331188       -4.8713843098
 H        -8.9061896713        7.3533166501       -2.0120894048
 H        -8.7560765233        8.6760623134       -3.2484237525
 H        -3.9037368310        6.0245765248       -1.6283979628
 H        -5.1224357579        5.5753667360       -2.6865666582
 H        -4.9844500761        4.5359885578        0.2428221508
 H        -3.8089701184        3.8830806057       -0.8603783827
 H        -6.9155552945        2.0059360594        0.1821572794
 H        -5.3169589065        1.1242930722        0.1340055099
 H        -7.1879219092       -0.2793814418        1.4424902238
 H        -7.0092843784       -0.9652384866       -0.1490975575
 H        -8.5055698995       -1.4342758767       -3.1365449991
 H        -9.6702159462       -0.4329471324       -4.1628492095
 H       -10.3072699569       -1.8965687564       -3.3911768067
 H        -8.9679421910       -2.7067408666        0.2327629656
 H        -8.0604106846       -2.1762540534       -1.2455652766
 H        -9.5992974951       -2.7475478779       -1.3578287461
 H       -10.7076139388       -0.7139211184        1.1691903602
 H       -11.5144394650       -1.5007045742       -0.1119350836
 H       -11.4646773823        0.1643032585       -0.1754713013
 H        -6.0232140104        2.1613979342       -4.5054919808
 H        -6.5253450159        3.8763557537       -3.9623723589
 H        -7.4909251193        2.4271311774       -3.7727501391
 H        -4.0479146263        1.6577892866       -1.5425724982
 H        -3.9664467478        2.8143466862       -2.8631499177
 H        -4.3697354217        1.1570726926       -3.3127377770
 H        -5.2232166598        9.4565225715       -3.0289442993
 H        -4.4751918781        7.8741710742       -3.1839464781
 H        -4.0941666002        8.9853950172       -1.6765644463
 H        -7.4811698319        8.7121978803       -0.2205416411
 H        -7.3793481294        9.8282745045       -1.5316197666
 H        -6.1165020445        9.6583563271       -0.5210136517
 H       -10.3967790009        2.9749124482       -5.4188885749
 H       -11.7701400434        2.8678549776       -4.5984979509
 H       -10.3588462542        2.9966210100       -3.6908249286
 H       -10.3351968208        5.7322238609       -6.2936690025
 H       -11.7624985739        6.4655690979       -5.6760516835
 H       -11.8831870377        4.8164247965       -6.4454687655
 H       -13.6224676349        6.5733718735        2.7799897835
 H       -14.4282245361        6.0035270587        1.2865859002
 H       -13.0707660974        7.1424018912        1.2864478344
 H       -10.3680834256        4.4996257216        2.3674252009
 H       -11.2082481292        5.7850174366        3.2131548126
 H       -10.6801666632        6.1706475111        1.6356005652
 H       -16.7957768828        2.4369611285        6.2063962247
 H       -16.2694966897        1.7275662264        7.8399658621
 H       -15.4654394209        1.1785094995        6.2881033711
 H       -16.2681353158        4.4859848035        8.0772686326
 H       -16.3121977591        4.9102305324        6.4164315049
 H       -14.8959111213        5.3821124185        7.4719245436
 Na       -9.7331974333        2.9197460552       -1.2031951718
