117

 C       -13.7247622664        3.6076129808        9.2080234887
 C       -13.8305858858        2.8899106483        7.8266762387
 O       -13.1505500145        1.9189757261        7.6265692701
 C       -14.9172951480        3.3805759489        6.7657839658
 C       -14.2689049816        3.6160351255        5.4413186523
 O       -14.1270231516        4.7721570612        5.0607060329
 C       -13.5719655419        2.4873493030        4.5756266494
 C       -12.5139236947        3.2071463316        3.7102844483
 C       -13.1353425724        3.6294732787        2.3500782872
 O       -13.9643142317        2.9643986773        1.7780998932
 C       -12.5232881385        4.9326459949        1.5556108063
 C       -12.2257542839        4.7113856215        0.0679702082
 O       -11.1327081598        4.2788577938       -0.2603813439
 C       -13.3345059026        5.0009295167       -0.9922807710
 C       -12.9996037627        4.3555900071       -2.3323551735
 C       -12.2143248128        5.3641625656       -3.2822543912
 O       -12.4661380179        6.5219567110       -3.1806483198
 C       -11.0949106129        4.8730866599       -4.2752530646
 C        -9.7725048750        5.4012780233       -3.7407397381
 O        -9.1143480794        4.7043976030       -2.9605110663
 C        -9.2466900786        6.8381667293       -4.0609464355
 C        -8.3706372938        7.4778800462       -2.9502743181
 C        -6.9360006849        7.2214094574       -2.9668392601
 O        -6.3590119731        6.5298525822       -3.7844022118
 C        -6.0429581257        8.0078803366       -1.8921196405
 C        -5.6228852151        6.8095827283       -0.9262380494
 O        -6.0118472626        6.7407067494        0.2035018768
 C        -4.6839335800        5.7826539811       -1.5353675713
 C        -4.8923167027        4.4305581864       -0.7940515778
 C        -6.1321456449        3.6760880908       -1.2996823355
 O        -7.2417282343        4.0578241291       -1.0504992966
 C        -5.9289261539        2.4310976176       -2.2896022959
 C        -6.6299431092        1.1878986459       -1.6154725965
 O        -7.2487723540        0.3413643324       -2.2595740490
 C        -6.4290325406        0.9866269823       -0.0720559842
 C        -7.2490198805       -0.1160868506        0.5676355627
 C        -8.7122126929        0.2374397915        0.0878802258
 O        -9.1155562236        1.3896736018        0.2467368255
 C        -9.6377109082       -0.8344918066       -0.6644554196
 C        -9.8075983682       -0.3070674377       -2.1040281036
 O       -10.3395909569        0.8011592064       -2.2464097151
 C        -9.4832344038       -1.1625676666       -3.3565274402
 C        -9.0511431323       -2.2242348762       -0.6483007298
 C       -11.0418729757       -0.7662632026        0.1489192242
 C        -6.4934238510        2.6494656158       -3.7155215730
 C        -4.3751137408        1.9565096433       -2.4144311838
 C        -4.7616022646        8.6222470614       -2.5589512907
 C        -6.8195308035        9.0012277117       -1.0931268249
 C       -10.9916433623        3.3823337451       -4.5331025291
 C       -11.4219864233        5.5453704150       -5.6775761444
 C       -13.4780240245        6.1340540434        1.7597971110
 C       -11.1531934011        5.3771590796        2.1495122823
 C       -15.9150493873        2.1786373092        6.7831928366
 C       -15.6480925346        4.6190995198        7.2767205080
 H       -14.7242369682        3.7871034239        9.6262268757
 H       -13.2393662785        4.5499988064        9.1026004824
 H       -13.2585718994        2.9510156199        9.8499222822
 H       -14.3182339021        1.9994402858        3.8333482393
 H       -13.0394301972        1.6783422766        5.0584842730
 H       -11.6471198538        2.6160823676        3.4568973316
 H       -12.1279607371        4.0956820001        4.1772825142
 H       -13.5394516289        6.1507634715       -1.0349820624
 H       -14.2342410219        4.5730768774       -0.4961887978
 H       -13.8620106841        4.1079079723       -2.9780618504
 H       -12.3672886679        3.4336759711       -2.2359729080
 H       -10.0984771937        7.5296336934       -4.2474833919
 H        -8.6888218943        6.8386898367       -4.9773401220
 H        -8.7793982041        6.9912903041       -2.0297994116
 H        -8.6163342047        8.5498078897       -3.0047390037
 H        -3.6631761020        6.1280905411       -1.5205941626
 H        -4.9360266964        5.8005926732       -2.6282641376
 H        -5.1453290656        4.6805132658        0.2622572512
 H        -3.9603759809        3.8688063353       -0.7334262125
 H        -6.6483069351        1.9796793214        0.4083248077
 H        -5.3178529764        0.7434648768        0.0104595019
 H        -7.0570130949       -0.1656025547        1.6297807429
 H        -6.8772463522       -1.0294748120        0.1424888132
 H        -8.4724708024       -1.5722119630       -3.2583537072
 H        -9.6840726240       -0.5517203366       -4.2110674599
 H       -10.2607301483       -1.9417922055       -3.3164051926
 H        -8.9944060199       -2.6325705786        0.3051757655
 H        -8.0577103458       -2.1738527404       -1.1717658784
 H        -9.6275327734       -2.9438067911       -1.2498562565
 H       -11.0070776830       -0.4676163561        1.1146414919
 H       -11.4668759103       -1.7687469496        0.2009706764
 H       -11.7820503606       -0.1926320692       -0.4157735867
 H        -5.8460922282        2.2396602751       -4.5785598655
 H        -6.7420506452        3.6978452959       -3.8750274991
 H        -7.4621961614        2.1306713572       -3.9180103721
 H        -4.0181019643        1.7302011004       -1.4572394502
 H        -3.7383201742        2.7032679987       -3.0422948600
 H        -4.4486696207        0.9843455382       -3.0098550102
 H        -5.0601216409        9.6387379179       -2.9030077562
 H        -4.4811793308        8.0101463581       -3.3976833800
 H        -4.0056498876        8.7455482201       -1.7397780715
 H        -7.5072702737        8.4665649105       -0.4001086990
 H        -7.4015632368        9.7263395219       -1.6907949509
 H        -6.2659869523        9.6859314163       -0.5009579643
 H       -10.6324813105        3.0821095031       -5.4552134719
 H       -11.9228675523        2.8414103923       -4.5166234523
 H       -10.3576732107        2.8533013481       -3.7817967634
 H       -10.4822251640        5.7337727283       -6.1752840826
 H       -11.7718973883        6.6113881683       -5.5307857145
 H       -12.0954952725        5.0112125347       -6.2847626369
 H       -13.6021424634        6.2742387981        2.8243222957
 H       -14.4550063889        6.0903440241        1.2664591286
 H       -13.0090984071        7.0613168587        1.4785928888
 H       -10.4732117511        4.5764902530        2.1055035900
 H       -11.2484006614        5.6562047150        3.2238427212
 H       -10.8419320161        6.3176546200        1.6356464878
 H       -16.7857044488        2.4659624873        6.1560355511
 H       -16.2293779382        2.0540259073        7.8259360292
 H       -15.4360349366        1.2731493590        6.4188054570
 H       -16.4152614363        4.4360002189        8.0663069494
 H       -16.2060690994        5.1228455602        6.5213600293
 H       -14.9175959612        5.3678894720        7.7210090604
 Na       -9.6356035275        3.0017683777       -1.3966326890
