117

 C       -13.6556249286        3.6229947178        9.1846214333
 C       -13.8464934895        2.9323862873        7.8471566557
 O       -13.0644516411        2.0399758185        7.4501503565
 C       -14.9668886558        3.4047854853        6.8789192539
 C       -14.2415215640        3.7005495006        5.4438607265
 O       -14.1058996860        4.8421327462        5.0453533418
 C       -13.6345226152        2.6154085554        4.6146362941
 C       -12.5827018815        3.2089269122        3.6159933436
 C       -13.1145271880        3.6659310063        2.2470627040
 O       -14.0011912245        3.0361971289        1.7121331113
 C       -12.4975528563        4.9866892923        1.5986431227
 C       -12.2037301605        4.6221027759        0.0917988124
 O       -11.0903702632        4.3229003733       -0.3418673228
 C       -13.3232356837        4.8995949997       -0.9521780054
 C       -13.0916648640        4.3878632109       -2.3874082352
 C       -12.1603231135        5.3839286928       -3.1984201587
 O       -12.3863142856        6.5869344258       -3.0746483383
 C       -11.1263632394        4.8821093155       -4.2675119226
 C        -9.7876231979        5.4182807995       -3.7316820135
 O        -9.1099165192        4.8131091383       -2.9205852870
 C        -9.3686928717        6.8550784120       -4.0165312451
 C        -8.4631958586        7.3764445302       -2.9004713201
 C        -6.9270996795        7.1658792545       -3.0531987943
 O        -6.3970880473        6.3840834598       -3.8381790539
 C        -5.9832195287        7.9684413043       -1.9529490303
 C        -5.5010637938        6.8496848253       -0.9598905880
 O        -5.9618797556        6.8174938663        0.1733983759
 C        -4.4737382511        5.7682997812       -1.3777426861
 C        -4.9350617247        4.4430241933       -0.8138002475
 C        -6.1215764705        3.6932476107       -1.3890980366
 O        -7.2793259775        3.9770011676       -1.1129269832
 C        -5.9441012637        2.3800346107       -2.1987777275
 C        -6.5543070905        1.1163532693       -1.5193319697
 O        -7.1947459480        0.3348374932       -2.1621776531
 C        -6.3174575929        0.9041737995       -0.0106559604
 C        -7.3042056965       -0.0816992441        0.5843694561
 C        -8.7498002366        0.1818304211        0.1169528021
 O        -9.1242471022        1.3191571169        0.1844783810
 C        -9.6074676437       -0.9018097005       -0.5898290842
 C        -9.8470196467       -0.3012530976       -2.0766882685
 O       -10.1946748220        0.8343403851       -2.3825282750
 C        -9.4893887791       -1.2593329011       -3.2467801805
 C        -9.1031391985       -2.3479957153       -0.5049758688
 C       -11.0860701387       -0.8856513722        0.0374426802
 C        -6.5187199845        2.5940673825       -3.6021573828
 C        -4.4083038731        2.0086772671       -2.3646261291
 C        -4.7620891712        8.5941047908       -2.6495046189
 C        -6.7871341905        8.9973603539       -1.1311433951
 C       -11.1856331634        3.3382932661       -4.5148648129
 C       -11.5828356531        5.6308602404       -5.6255464959
 C       -13.6008985309        6.0365916905        1.7894657525
 C       -11.1437780406        5.3931263746        2.2065761821
 C       -15.9834690233        2.2323224067        6.6818296810
 C       -15.6970566987        4.6888775712        7.3345174881
 H       -14.6785838528        3.7616515725        9.6118284413
 H       -13.3147576531        4.5984561899        8.9109958560
 H       -13.0512559108        3.1212883261        9.9024333772
 H       -14.3890170249        2.0571416633        4.1173257675
 H       -13.0148782858        1.9337149016        5.2084785880
 H       -11.7462383532        2.4930056643        3.4761254113
 H       -12.1498040706        4.0907827288        4.0347722072
 H       -13.3847851894        6.0308145084       -0.9522016709
 H       -14.2670960651        4.5702896859       -0.4969650953
 H       -13.9897319796        4.4511893444       -3.0367724091
 H       -12.6701043342        3.3650221591       -2.5297693033
 H       -10.2513342520        7.4777449302       -4.1593529762
 H        -8.7951517673        6.9793320148       -4.9488035031
 H        -8.8031693780        6.7985018779       -2.0147390698
 H        -8.6988629579        8.4090025638       -2.8616133541
 H        -3.3784951392        6.0299956295       -1.0620796871
 H        -4.4111582420        5.7719648237       -2.4493596839
 H        -5.1567045103        4.5685551103        0.3145022118
 H        -4.1020514944        3.8148487254       -0.8589133419
 H        -6.3425048982        1.8789416843        0.5165455472
 H        -5.3071071228        0.4598148321        0.0894772763
 H        -7.3308329409        0.2250898661        1.6061322598
 H        -6.8508258122       -1.0888103334        0.5867930766
 H        -8.5181417871       -1.5151700941       -3.0453710544
 H        -9.6292724398       -0.6485713587       -4.1935662546
 H       -10.1403317697       -2.0948131333       -3.2906731440
 H        -8.9132075222       -2.6264961712        0.5316760445
 H        -8.2164178542       -2.4868877438       -1.1269031296
 H        -9.8584887648       -3.0931170194       -0.8603881799
 H       -11.2443543527       -0.4031693581        1.0596063338
 H       -11.4710062560       -1.9186049328        0.2433980102
 H       -11.7686705590       -0.4319956837       -0.6348716721
 H        -5.8632257312        2.3963716718       -4.4487921871
 H        -6.8155912955        3.5993938588       -3.6277577788
 H        -7.4625112013        2.0460863098       -3.8729191958
 H        -3.9514836882        1.8475351541       -1.2898647835
 H        -3.8916220794        2.7451266343       -3.0316593731
 H        -4.3960577759        1.0544824606       -2.7793372936
 H        -5.0016446269        9.6393195030       -2.9072273973
 H        -4.4835979480        8.0103197027       -3.5156014245
 H        -4.0392198089        8.6652382356       -1.8681907597
 H        -7.6706155992        8.5703872634       -0.6376853412
 H        -7.1177733058        9.8280446457       -1.8121036043
 H        -6.2783593337        9.6135281432       -0.3420464028
 H       -10.7066033755        3.0159857858       -5.4265661366
 H       -12.1957889802        2.8331272400       -4.6436135215
 H       -10.7091675507        2.7364225133       -3.7573148334
 H       -10.7731679085        5.6386293287       -6.3286505396
 H       -11.6999383244        6.7206603690       -5.4848767848
 H       -12.5365989579        5.2594356078       -5.9443096066
 H       -13.7985982863        6.0964192176        2.8864841720
 H       -14.5088937068        5.7521241236        1.3107697653
 H       -13.3436316956        7.0243653688        1.5115739815
 H       -10.5297695450        4.5113415606        2.0263324543
 H       -11.1638420965        5.5443984997        3.2811315985
 H       -10.7846748596        6.3242865425        1.7665108390
 H       -16.6612501484        2.4643973525        5.9115591922
 H       -16.4825457527        2.0728513380        7.6017839328
 H       -15.4145722768        1.3376551045        6.4137645920
 H       -16.4644486885        4.6600161072        8.0935075212
 H       -16.2081463831        5.0853625512        6.4457140336
 H       -14.9986117529        5.4677922910        7.5924715532
 Na       -9.4692716662        3.0728154460       -1.5785499022
