117

 C       -13.4961043288        3.9773972662        8.8545596532
 C       -13.8174954081        3.2942430926        7.5099647734
 O       -13.0199142503        2.4588932596        7.0723508129
 C       -14.9700118555        3.7279241904        6.6563102338
 C       -14.2545990293        3.9713785551        5.3081019533
 O       -13.9489138515        5.1037218242        4.9913046726
 C       -13.8957744804        2.8649140582        4.3755617578
 C       -12.6531543340        3.2651668801        3.5295717953
 C       -13.0580405402        3.6979927146        2.1288489967
 O       -13.9428310046        3.1516993240        1.4912349092
 C       -12.3892166484        5.0267442330        1.4513749434
 C       -12.2266254508        4.6244541593       -0.0141241265
 O       -11.2139365314        4.0623949618       -0.4081392010
 C       -13.4774254459        4.6566590586       -0.8497218632
 C       -13.1224076959        4.2013740586       -2.2983415506
 C       -12.1683564180        5.3190577709       -2.8578246601
 O       -12.0765053257        6.3967836216       -2.3021556701
 C       -11.4177494906        5.1182422689       -4.2012812686
 C        -9.9321048471        5.4875569835       -3.7612067650
 O        -9.2958371073        4.5816150542       -3.1780294877
 C        -9.5493315855        6.9507773039       -3.9206202627
 C        -8.5577998705        7.4030400344       -2.8244234911
 C        -7.1360546316        6.9454952477       -3.0260711503
 O        -6.8732833513        5.9516889853       -3.6760195919
 C        -5.8958871967        7.7234152352       -2.3669388482
 C        -5.4932339539        6.7323404915       -1.2007857699
 O        -5.8615002171        6.9966655018       -0.0561392929
 C        -4.7697411412        5.4131046972       -1.5363940345
 C        -5.0802681102        4.3952374648       -0.4430171446
 C        -6.1991911633        3.4517167928       -0.8744952189
 O        -7.3259152901        3.6283272848       -0.5195641019
 C        -5.8237963057        2.2778244796       -1.8433108168
 C        -6.3401077315        0.9077850758       -1.1764052710
 O        -6.5789850174       -0.0700575771       -1.8529032491
 C        -6.3405570829        0.7893380199        0.3256608351
 C        -7.3989371983       -0.2506516893        0.7255411430
 C        -8.7370654847        0.2505542200        0.1948401308
 O        -9.0813138629        1.4213064347        0.3294608697
 C        -9.7022671649       -0.7182196131       -0.5426976735
 C        -9.5211614559       -0.4668982220       -2.0512363139
 O        -9.3875883423        0.6577040431       -2.4635938007
 C        -9.7121083705       -1.6771607686       -3.0237533592
 C        -9.3636648831       -2.1602625382       -0.1914596800
 C       -11.1976721566       -0.3443606245       -0.3375847606
 C        -6.3712117822        2.4180264376       -3.2930813073
 C        -4.2934470964        1.9486675279       -1.9354182693
 C        -4.7265121360        7.9144323499       -3.4255493302
 C        -6.2891813472        9.0822220348       -1.7618786332
 C       -11.5228024652        3.7474365986       -4.8392370300
 C       -12.0562685712        6.2026922436       -5.2037253368
 C       -13.3130771331        6.1882235551        1.7119911354
 C       -11.0122869288        5.3898670541        2.0228422415
 C       -16.0662028141        2.6029580167        6.6153588125
 C       -15.6039157950        5.0561220275        7.0171189129
 H       -14.2623357801        3.7004091085        9.6385297346
 H       -13.5158557138        5.0917063743        8.7338349235
 H       -12.5192214797        3.7054753123        9.1519761597
 H       -14.7295082739        2.6166244404        3.7200714222
 H       -13.5081051786        2.1021790017        4.9402492541
 H       -11.9895191955        2.4009014870        3.3566500826
 H       -12.0885954458        4.1132927790        3.9726354581
 H       -13.8502291346        5.6602319228       -0.8485827866
 H       -14.1859048675        3.9478008419       -0.4855974714
 H       -13.9936978252        4.0876707617       -2.9397295487
 H       -12.5145083174        3.3177587018       -2.4429992818
 H       -10.4810873251        7.5707751516       -3.8881212980
 H        -9.1823456088        7.1982771170       -4.9145176601
 H        -8.9862956477        7.0427266457       -1.9116546187
 H        -8.6813590658        8.4804212720       -2.8132816240
 H        -3.7144729437        5.5317473626       -1.5830433622
 H        -5.0526252466        5.1240363097       -2.6191028915
 H        -5.4753652000        4.9591723519        0.3636481332
 H        -4.1485137683        3.7998977278       -0.3022699581
 H        -6.5394128805        1.7311156443        0.7767644315
 H        -5.3807793639        0.5580238204        0.7467474164
 H        -7.5069550672       -0.2750371954        1.8469969067
 H        -7.1191730904       -1.2290783630        0.3530263418
 H        -8.9571705891       -2.3977634493       -2.8087127585
 H        -9.6824620228       -1.3306005036       -4.0767015537
 H       -10.6882638471       -2.0150768264       -2.7660428476
 H        -9.2197989506       -2.3868284600        0.8322145483
 H        -8.3280879423       -2.3353711817       -0.6173014719
 H       -10.0789744479       -2.8367258678       -0.6710034619
 H       -11.7160754605       -1.0058599835        0.3582185997
 H       -11.8222533250       -0.4349315612       -1.3097189361
 H       -11.2724714630        0.6741350444        0.1401099202
 H        -5.7448310982        1.8391390747       -3.9898584599
 H        -6.4783470997        3.3536418254       -3.7300198998
 H        -7.3274110349        1.9875434997       -3.2280848433
 H        -3.8487235394        1.8011543317       -0.9841829198
 H        -3.8714604471        2.8379934155       -2.3864092846
 H        -4.2571104752        1.0682392612       -2.5216350992
 H        -4.7829389136        8.9224887557       -3.8045914035
 H        -4.8957003556        7.1976330945       -4.1806169529
 H        -3.7736498775        7.7494892347       -2.8857755099
 H        -7.2019450910        8.9271343316       -1.0988591376
 H        -6.6948252346        9.7971894889       -2.5253212449
 H        -5.5328880670        9.5186011874       -1.1213210227
 H       -11.0322360368        3.7464122754       -5.7896730962
 H       -12.5137438671        3.3067059482       -4.9201607226
 H       -10.9704049070        2.8938309563       -4.3158589273
 H       -11.3601032380        6.6454682996       -5.9522108115
 H       -12.5357719329        7.0766277868       -4.6229880951
 H       -12.9006067515        5.7635045920       -5.7035573428
 H       -13.3851536569        6.3116373677        2.7608341588
 H       -14.3509653926        6.0186722762        1.4085556131
 H       -12.9394915274        7.0705827559        1.2261828538
 H       -10.4212875001        4.5245055050        2.0559405342
 H       -11.2259097201        5.8078311038        3.0137142844
 H       -10.4620872810        6.0669204501        1.3612953179
 H       -16.7800766432        2.8884034431        5.8540760684
 H       -16.6115150115        2.6162780711        7.5323546168
 H       -15.7008085842        1.6388300783        6.4188644491
 H       -16.2425469819        4.9551145090        7.8801746277
 H       -16.1626503901        5.4128741633        6.2020047645
 H       -14.8519273062        5.8522692626        7.1964863582
 Na       -9.5253434273        2.9418409992       -1.5800247627
