117

 C       -13.5099173214        4.1210926131        8.8637088379
 C       -13.7704924021        3.3258286442        7.5502723794
 O       -13.0126150568        2.4219485241        7.1546336240
 C       -15.0161033292        3.7900747043        6.6142849842
 C       -14.3035095856        3.9680097923        5.2080778210
 O       -13.9746834172        5.1195218490        4.9624953026
 C       -13.8311669393        2.7329511853        4.3461119891
 C       -12.5772788335        3.1720648380        3.5303106782
 C       -13.0173519804        3.7246449481        2.1742779295
 O       -13.9675226196        3.2123954574        1.5954294055
 C       -12.3444210577        4.9636722277        1.4878635032
 C       -12.2773327264        4.5475719474       -0.0499196931
 O       -11.1914937751        4.1105839493       -0.4230204792
 C       -13.5416413987        4.5695009026       -0.9627737511
 C       -13.1072131423        4.1734866555       -2.3751227946
 C       -12.2290159755        5.3487387566       -2.9299506537
 O       -12.0445872910        6.3234848599       -2.1963112119
 C       -11.4878927280        5.1813054595       -4.2766787448
 C       -10.0729981551        5.4764353382       -3.6836264852
 O        -9.3923343369        4.6230944643       -3.1407375949
 C        -9.5622169989        6.8758333587       -3.7780826276
 C        -8.4320068801        7.4156564079       -2.8110014247
 C        -7.1057773282        6.8921765646       -3.1209999402
 O        -6.7881235877        5.8451041882       -3.7004109252
 C        -5.8764664834        7.7266670638       -2.4998405044
 C        -5.5150257737        6.7138829531       -1.2822067897
 O        -5.8898914497        7.0601741046       -0.1782109115
 C        -4.7624001980        5.4227564015       -1.4716024973
 C        -5.1446658505        4.3932715683       -0.3516438804
 C        -6.2550356088        3.4237642671       -0.8502746499
 O        -7.4162136134        3.6349163230       -0.5801158963
 C        -5.8193110067        2.1649284850       -1.8069483942
 C        -6.2600524259        0.8011305037       -1.1751125210
 O        -6.5126206272       -0.1003794390       -1.9377053842
 C        -6.3305250580        0.6611594325        0.3931043108
 C        -7.4665953945       -0.2800881366        0.7902094800
 C        -8.8434558329        0.2493327691        0.2671485003
 O        -9.0069481952        1.4484033828        0.3116207484
 C        -9.7723515985       -0.7154657860       -0.5323300265
 C        -9.5461342643       -0.3206426127       -2.0404064366
 O        -9.2917088257        0.7850591970       -2.4792772169
 C        -9.6074568058       -1.5304175950       -3.0231366498
 C        -9.5470493509       -2.1999879518       -0.1366595690
 C       -11.2905824859       -0.3614430116       -0.2480047363
 C        -6.4123497912        2.2848382504       -3.1514784641
 C        -4.1929964276        2.0748515855       -1.8652165550
 C        -4.7680003686        7.9148170328       -3.5301884862
 C        -6.2729641788        9.0578050996       -1.8356447276
 C       -11.4379182807        3.8323290141       -4.9352258804
 C       -12.0325115688        6.1844700360       -5.2742232304
 C       -13.2878526508        6.2118447536        1.6618124266
 C       -10.8229894980        5.3549005716        1.9789066147
 C       -16.1360595252        2.6991368665        6.6540519663
 C       -15.5959135236        5.1664025066        7.0494366292
 H       -14.4439776551        3.9711749739        9.5031101566
 H       -13.3932249213        5.1762259536        8.6616145482
 H       -12.6028439748        3.7729307992        9.3871367596
 H       -14.6085797022        2.5185330439        3.5529536441
 H       -13.5073918151        1.8916691830        4.9923215015
 H       -11.9048134254        2.3269855991        3.2730987556
 H       -12.0063855815        3.9663752183        4.0142386702
 H       -13.9380504469        5.6041264168       -0.9669729554
 H       -14.2097364001        3.8297418698       -0.6537087314
 H       -13.9347988861        4.0167693394       -3.0268510681
 H       -12.4525104935        3.3002415785       -2.4522694075
 H       -10.4002895386        7.6113901969       -3.8636331074
 H        -9.1648230093        6.9676572433       -4.7822409462
 H        -8.6491603047        7.0820892637       -1.7600026165
 H        -8.5465115881        8.4884786864       -2.7997931453
 H        -3.6771580269        5.5838047974       -1.4357921737
 H        -4.9585532766        5.0658982805       -2.4553220811
 H        -5.6002738583        4.9475756834        0.5176215718
 H        -4.3034599603        3.8201638204       -0.1773802575
 H        -6.3691169831        1.6219927226        0.8839765205
 H        -5.4345292065        0.2623505221        0.8439847733
 H        -7.5730940439       -0.2471730581        1.8789841815
 H        -7.1557744713       -1.3144931704        0.4978342137
 H        -8.8999951528       -2.2418591282       -2.6988933009
 H        -9.3730993201       -1.1749930126       -4.0829679328
 H       -10.6396847927       -1.8880841840       -2.9415287474
 H        -9.6117541833       -2.3020996376        0.9208014470
 H        -8.5322199178       -2.5516199060       -0.3434903079
 H       -10.3003336668       -2.8197643944       -0.6609144564
 H       -11.7472545636       -1.0760453527        0.5376076834
 H       -11.9171844008       -0.5191703366       -1.1670228587
 H       -11.4239599664        0.6053316296        0.1633370655
 H        -6.0679224520        1.5358849981       -3.8247349691
 H        -6.1866813188        3.1875895085       -3.6181226961
 H        -7.5014153085        2.2380965953       -3.0206191139
 H        -3.8732010267        1.8246997032       -0.7990353525
 H        -3.8306407991        3.0434290849       -2.0419780819
 H        -3.9316898056        1.4208059183       -2.6102232967
 H        -4.7518992354        8.9908880238       -3.7399299665
 H        -5.0799887940        7.3986018491       -4.4162658242
 H        -3.8345062671        7.5383988182       -3.1771743740
 H        -7.1004483533        8.9028560076       -1.1657731862
 H        -6.6264673032        9.8449332258       -2.5059247869
 H        -5.4496812801        9.3978664003       -1.2128034280
 H       -10.8218899912        3.7997452974       -5.8063271035
 H       -12.4264755372        3.3204514461       -5.1715247254
 H       -10.9885771410        3.0902749693       -4.2848399984
 H       -11.3136525244        6.3844459648       -6.1316566295
 H       -12.2901422129        7.1653651642       -4.7657186939
 H       -12.9749036047        5.8333655077       -5.7513435621
 H       -13.3565367255        6.3559060747        2.7729472348
 H       -14.3137098867        6.0903453799        1.3330572641
 H       -12.8540060428        7.0662379997        1.1963560092
 H       -10.2096480245        4.4841509302        2.0250077364
 H       -10.9567287012        5.8417636225        2.9192416408
 H       -10.3348703532        5.9867837754        1.2404802357
 H       -16.8867418891        3.0157424070        5.9811356520
 H       -16.6370298924        2.6696072998        7.5821404921
 H       -15.8018024804        1.7065581815        6.3745890671
 H       -15.9885276684        5.0746372843        8.0477949742
 H       -16.3545881239        5.5611178982        6.3814176926
 H       -14.7741922503        5.8617935449        7.1107171193
 Na       -9.5418988254        2.9378372701       -1.5759623335
