117

 C       -13.5559918191        4.1732093223        8.7909386681
 C       -13.7951119522        3.3766768978        7.5742409983
 O       -13.0972580701        2.4400499769        7.3504217968
 C       -14.9616394076        3.8700452250        6.6165009377
 C       -14.2688678054        4.0119299669        5.1748446961
 O       -13.9822890102        5.0944638223        4.7229466691
 C       -13.7706672560        2.7764196158        4.4853543797
 C       -12.5556725873        3.1359659422        3.5624135205
 C       -13.0202855663        3.8011261355        2.1999467871
 O       -13.9943196442        3.2786495656        1.7139505062
 C       -12.3175393540        4.9574487613        1.4706461382
 C       -12.2301743503        4.4683225336       -0.0512965169
 O       -11.1630195589        4.1131792250       -0.5061144508
 C       -13.4971732141        4.3728506831       -0.9096815083
 C       -13.1846671920        4.1350866136       -2.3651929501
 C       -12.2934583556        5.3246310646       -2.9756251185
 O       -12.0896492465        6.2777571832       -2.2610198264
 C       -11.4502637263        5.2452969678       -4.2791410945
 C       -10.0279799070        5.5165656234       -3.7009529304
 O        -9.4886457420        4.6524656100       -3.0974997097
 C        -9.5195827640        6.9773860259       -3.8433495979
 C        -8.3915538311        7.3553082744       -2.8183395542
 C        -7.0410867288        6.8024724064       -3.1388970570
 O        -6.7954212711        5.8319559925       -3.8073318351
 C        -5.7980389621        7.6719398404       -2.5121958398
 C        -5.4925497295        6.7757059301       -1.2558687390
 O        -5.9313677148        7.1178471230       -0.2039334115
 C        -4.7655441359        5.4160678661       -1.4473919454
 C        -5.2547744971        4.4169784544       -0.3203580917
 C        -6.2153453312        3.3763977310       -0.8698476334
 O        -7.4486090265        3.5884831884       -0.7841851621
 C        -5.7846855637        2.1558708145       -1.6476944658
 C        -6.1990819940        0.7040881301       -1.1015615663
 O        -6.4797844536       -0.1868782425       -1.8802047455
 C        -6.3288436842        0.4877734589        0.3795532133
 C        -7.5099245376       -0.3403158564        0.9035754206
 C        -8.8584623987        0.2867577791        0.3060418565
 O        -9.0782176355        1.4822277047        0.3182121069
 C        -9.8168340471       -0.6762669935       -0.4637459834
 C        -9.4963657627       -0.3140821515       -2.0454506716
 O        -9.3344626616        0.8434182486       -2.4392069319
 C        -9.4826341053       -1.4311303427       -3.1331200782
 C        -9.7708073382       -2.1577946253       -0.1913382888
 C       -11.3263735192       -0.2731130525       -0.1217350780
 C        -6.4399091709        2.2918957228       -3.0516895465
 C        -4.1575059167        2.2088360917       -1.7991773480
 C        -4.7025880033        7.8430471322       -3.6256343519
 C        -6.2549424228        9.0389660864       -1.9712735551
 C       -11.4222431210        3.8168345995       -4.9362125881
 C       -11.9476798995        6.2562992760       -5.3492579821
 C       -13.2016561702        6.1931199113        1.6402780576
 C       -10.9103392268        5.1861457106        1.9119115923
 C       -16.0733096867        2.7945310272        6.6396335329
 C       -15.5737480616        5.1691362586        7.1008421651
 H       -14.4632300075        4.2826189225        9.3018562270
 H       -13.1306151930        5.1409043779        8.5581347827
 H       -12.7869738871        3.5933180969        9.3970941720
 H       -14.5536866006        2.5216959986        3.7317631180
 H       -13.4233471484        1.9388494183        5.2334270770
 H       -12.0793868690        2.2040810421        3.2345697515
 H       -11.8186739403        3.7584332154        4.0416471606
 H       -13.9982039312        5.3516799577       -0.8225764801
 H       -14.0719090560        3.4647285388       -0.5579432043
 H       -14.0957305831        4.1634310882       -2.9805879666
 H       -12.6409636236        3.2148585323       -2.5838020362
 H       -10.3686305008        7.5855245302       -3.6036489397
 H        -9.2976330119        7.3726565253       -4.8540171804
 H        -8.7426156750        6.9662445978       -1.8188705848
 H        -8.4777855908        8.4517972249       -2.6693821678
 H        -3.6710858456        5.6096293620       -1.2878338972
 H        -4.8782283825        5.0414972395       -2.4095325243
 H        -5.9000100631        5.0007132759        0.3752822735
 H        -4.4222844691        3.8969089847        0.1102428810
 H        -6.2365563098        1.4652722974        0.9172112294
 H        -5.3904675374        0.0229992291        0.7589589724
 H        -7.5561140841       -0.3902719170        1.9782664433
 H        -7.3679411469       -1.3707141613        0.5193517067
 H        -8.6971810361       -2.1963497202       -2.8337327600
 H        -9.1978667538       -0.9882025470       -4.0374646821
 H       -10.5312828386       -1.8315056832       -3.1556097869
 H        -9.8819041413       -2.3131625809        0.9167963087
 H        -8.8724806044       -2.6221181410       -0.4356993111
 H       -10.5734898421       -2.6030199071       -0.7488059296
 H       -11.6398326855       -0.6977768706        0.8459400382
 H       -11.9156395942       -0.7124277006       -0.8637380104
 H       -11.5535479137        0.7892035699       -0.0787130952
 H        -6.4331114310        1.3785866984       -3.5840370227
 H        -5.7667132102        2.9819432340       -3.6799763849
 H        -7.4403109910        2.7321545072       -3.0245997759
 H        -3.7304612368        1.9870437260       -0.8337004051
 H        -3.7804096307        3.1618478431       -2.1477685855
 H        -4.0415793613        1.4318402939       -2.6706990991
 H        -4.7010156833        8.9091583432       -3.7962858334
 H        -5.0646036602        7.3696964964       -4.5687858293
 H        -3.7618572838        7.4114600591       -3.3400261668
 H        -6.9672180281        9.0877284744       -1.1923313774
 H        -6.6106095957        9.6399756879       -2.7504351132
 H        -5.3148183706        9.4621543665       -1.6285694555
 H       -10.7767361591        3.6616124343       -5.8366670802
 H       -12.4221451868        3.5065210208       -5.2315635180
 H       -11.1464947925        3.0469769949       -4.2733869739
 H       -11.3514737936        6.0951318700       -6.2993198019
 H       -11.9049681995        7.2557338247       -5.0283639705
 H       -13.0231483240        6.0589278593       -5.7173831432
 H       -13.2931674023        6.3638093049        2.7392771322
 H       -14.2103550964        5.9350127089        1.3051707223
 H       -12.8581379239        7.1067147942        1.1042589572
 H       -10.3566461680        4.2208831594        1.8033257805
 H       -10.9702043150        5.5818900763        2.8958880397
 H       -10.4497722282        5.8551424364        1.2287559420
 H       -16.9377700075        3.1072788628        6.0749235002
 H       -16.4834185737        2.6667537669        7.6458855897
 H       -15.6946608541        1.8290459247        6.2743879823
 H       -15.7392118176        5.1651841068        8.1742380290
 H       -16.5675155906        5.3590421722        6.5831505127
 H       -14.8782584117        5.9570358790        6.9251825961
 Na       -9.5324900463        2.9306861348       -1.4870565486
