117

 C       -13.5211831928        4.3243104424        8.9509729326
 C       -13.7705470119        3.4329534858        7.6737385034
 O       -13.2663903423        2.3668055475        7.4028206734
 C       -14.8474845625        3.9549169234        6.5872183163
 C       -14.1698451381        4.0876949086        5.1543549211
 O       -14.0951007441        5.1615792546        4.5912597040
 C       -13.6420499996        2.7948265780        4.5540911639
 C       -12.5379217830        3.0930100298        3.5746138638
 C       -13.1268929719        3.6882088659        2.2351140449
 O       -14.1870428072        3.3012900908        1.7993674095
 C       -12.2705577372        4.8574510947        1.4426762470
 C       -12.2046649223        4.3913325670       -0.0541123801
 O       -11.1302071148        4.1037605495       -0.5176657793
 C       -13.4974593235        4.2114871462       -0.9293760536
 C       -13.2490338338        4.1482163379       -2.4324602704
 C       -12.3120755271        5.3049161413       -2.9271432570
 O       -12.2696082720        6.3413614559       -2.3353822659
 C       -11.4325211803        5.2069940858       -4.3071963272
 C       -10.0240489864        5.5569010826       -3.7777789100
 O        -9.4020827583        4.7536209459       -3.0477561555
 C        -9.5433688832        6.9835659990       -3.8503153834
 C        -8.4338915341        7.2287878718       -2.7985797875
 C        -6.9900795654        6.8582314246       -3.2319758882
 O        -6.8111298741        5.8715026510       -3.9136837607
 C        -5.7506612082        7.6663879040       -2.5762592289
 C        -5.4495475356        6.8224561623       -1.2362659015
 O        -5.9376694679        7.1519957206       -0.1594010332
 C        -4.8073684351        5.4175795950       -1.3595185921
 C        -5.3207876115        4.4719431212       -0.2610778347
 C        -6.2844248740        3.3926915077       -0.8803331137
 O        -7.4692741887        3.6297959174       -0.8719089511
 C        -5.6986279008        2.0939343356       -1.6550047685
 C        -6.1925280862        0.7030815533       -1.0381465760
 O        -6.4345220461       -0.2364089294       -1.7661279384
 C        -6.2811466470        0.4208259547        0.4966282267
 C        -7.6131526900       -0.3258924933        0.8705071455
 C        -8.8508592138        0.2407992996        0.2317633639
 O        -9.0746668464        1.4127879811        0.4932463428
 C        -9.9532013856       -0.6689286761       -0.5447002005
 C        -9.5880112276       -0.3129380152       -2.0374645301
 O        -9.4595320014        0.8532026923       -2.3474778583
 C        -9.3562356108       -1.3731725228       -3.0801621502
 C        -9.8629855955       -2.1335900746       -0.2857464217
 C       -11.2784875835       -0.0116288423       -0.1399302289
 C        -6.3275486235        2.2901463203       -3.1173899986
 C        -4.1743532545        2.1065002799       -1.7666509644
 C        -4.6035671331        7.6225735875       -3.6164760530
 C        -6.1659362080        9.0585854125       -2.1759511097
 C       -11.5024163452        3.7622187967       -4.9223311158
 C       -11.8932386301        6.2722517404       -5.3922557467
 C       -13.1254269055        6.1693888487        1.5831069800
 C       -10.8478436332        5.0525119528        1.9608177049
 C       -15.9470450724        2.8005075215        6.5348268920
 C       -15.5607815665        5.2704136172        7.0042710941
 H       -14.4277389529        4.5963706525        9.4237868862
 H       -12.9837004285        5.2291733523        8.6140831725
 H       -12.8572424515        3.8063666487        9.5653241033
 H       -14.4399456290        2.2614428905        4.0393828025
 H       -13.1348122457        2.2827777601        5.3787309775
 H       -11.9141917604        2.2355856103        3.3625868776
 H       -11.8858349791        3.8677278949        4.0070588976
 H       -14.1209244392        5.0691481959       -0.6921739557
 H       -13.8668336714        3.1706899599       -0.5679237473
 H       -14.0964577346        4.3182424145       -3.1580997168
 H       -12.7283538117        3.2373044490       -2.7340278081
 H       -10.3279160962        7.6938044607       -3.7303028004
 H        -9.1296627700        7.2901461125       -4.8352871739
 H        -8.7385569830        6.8478214062       -1.8345534778
 H        -8.5463193177        8.3312396955       -2.6300327625
 H        -3.7332954766        5.5412850050       -1.2579496979
 H        -5.0325170198        4.9695266121       -2.3885526628
 H        -5.9295367663        5.0099525342        0.4119256000
 H        -4.4493779211        3.8923788534        0.2432115725
 H        -6.1507288159        1.3266711972        1.1525088629
 H        -5.3760943617       -0.1611543099        0.8241305929
 H        -7.8412567476       -0.3394674421        1.9471049171
 H        -7.5451970292       -1.3418664774        0.5664737397
 H        -8.5256232570       -2.0192923900       -2.7093381884
 H        -8.9613536218       -0.8503293289       -3.9279776915
 H       -10.3029792133       -1.8748133415       -3.2531634227
 H        -9.9099899083       -2.3320821420        0.7856203301
 H        -8.8930056624       -2.5044093687       -0.6319907053
 H       -10.6002140116       -2.6612206724       -0.8337139109
 H       -11.2808571645        0.1260416651        0.8624481706
 H       -12.0754378573       -0.6349695367       -0.4673381369
 H       -11.4946051635        0.9718429106       -0.6138032854
 H        -6.6597852763        1.2863767557       -3.5754808383
 H        -5.6168476491        2.7290447079       -3.8765124367
 H        -7.2055376542        2.9332247946       -3.0562143589
 H        -3.7653364662        2.1569480536       -0.7983943571
 H        -3.8283488572        3.0265905928       -2.4006073335
 H        -3.9935588965        1.2207397748       -2.4305472534
 H        -4.4902013642        8.6594453887       -3.8916268985
 H        -4.8171964661        7.0486862958       -4.5334752301
 H        -3.7200405571        7.1763257313       -3.0930311918
 H        -6.8072127572        9.2259912217       -1.3101559955
 H        -6.6360027736        9.5172152160       -3.0162072293
 H        -5.2369800600        9.5567436615       -2.0826501178
 H       -10.8672310178        3.6097363513       -5.8086783691
 H       -12.4459403409        3.5052341750       -5.2754197573
 H       -11.2146902836        2.9586842219       -4.2080423196
 H       -11.4491941592        6.1025199009       -6.3573118694
 H       -11.6954490723        7.2504639134       -4.9717107920
 H       -12.9314476916        6.2330932674       -5.6504134366
 H       -13.0989664818        6.4848636499        2.6062623522
 H       -14.1863170620        5.9638051873        1.2728693218
 H       -12.7431498781        6.9975561626        0.9118344823
 H       -10.2718492048        4.1466040578        1.7455389044
 H       -10.9736384274        5.3079833342        3.0252979988
 H       -10.4000626801        5.8892580535        1.4225606110
 H       -16.9086978198        3.0404163687        5.9967090884
 H       -16.3021118400        2.6215625748        7.5885808676
 H       -15.4953755239        1.8732305441        6.1876042155
 H       -15.8253209354        5.3268793030        8.0813017465
 H       -16.4892519221        5.2867295494        6.4276406981
 H       -14.9055545906        6.1688804947        6.8188440172
 Na       -9.5349912646        2.9361263474       -1.4045666893
