117

 C       -13.4593982462        4.3316213469        8.8890717984
 C       -13.8048721139        3.5655682798        7.6694175941
 O       -13.3669175067        2.3935797014        7.6555596879
 C       -14.8430971545        4.0120823561        6.5942579256
 C       -14.1497732426        4.1419962554        5.2308590694
 O       -14.2149502280        5.1570485207        4.5655101448
 C       -13.4882086906        2.8416143023        4.6146928207
 C       -12.4984736794        3.1204181046        3.4843510399
 C       -13.1852400381        3.6858694229        2.2587426949
 O       -14.2957834091        3.3280279660        1.8767355441
 C       -12.3369656440        4.6713350145        1.4124813728
 C       -12.2410970997        4.2736395810       -0.0668322115
 O       -11.1232965145        4.1093190668       -0.5210152513
 C       -13.4569030731        4.1408311386       -0.9655410370
 C       -13.2043446298        4.1423318717       -2.4588812547
 C       -12.4184092281        5.3874187863       -3.0002920252
 O       -12.4543597471        6.4459127467       -2.4140648366
 C       -11.4757008697        5.1818727085       -4.2559664101
 C       -10.0055625946        5.5372495870       -3.6785759964
 O        -9.3243351746        4.6960937088       -3.0516275472
 C        -9.4862991330        6.9716307929       -3.8239954388
 C        -8.3889945158        7.2515877281       -2.8018828092
 C        -6.9798119847        6.8671307989       -3.2327616195
 O        -6.8088016868        5.9658863601       -4.0431354261
 C        -5.7335815991        7.6102160490       -2.6160486896
 C        -5.5959422347        6.7743939673       -1.2658581017
 O        -5.9007784871        7.2833044898       -0.1963851772
 C        -4.8531974273        5.4108191997       -1.3256589465
 C        -5.2941958333        4.4138501362       -0.2634736908
 C        -6.2991625408        3.3931111619       -0.9021932395
 O        -7.4509310960        3.6820385281       -0.8335564262
 C        -5.7027994407        2.1295698561       -1.6826647925
 C        -6.2498878022        0.7333409361       -0.9858158512
 O        -6.4016028508       -0.2166948693       -1.7211322973
 C        -6.3139806078        0.4820370206        0.5421080716
 C        -7.5087756933       -0.4474929860        0.8190420888
 C        -8.8483945091        0.2082561542        0.3633931090
 O        -9.1047382996        1.3831130738        0.5730596550
 C        -9.9336015098       -0.5513934160       -0.5404321434
 C        -9.6204677468       -0.2042154238       -2.0945277229
 O        -9.6418957726        0.9449011105       -2.4404490512
 C        -9.2469700243       -1.3953310357       -3.0042309824
 C        -9.9153277884       -2.0800946145       -0.2856447134
 C       -11.3021640778        0.1850393876       -0.2447498907
 C        -6.2170112527        2.1501413435       -3.1444865528
 C        -4.2081507821        1.9463141931       -1.6757459858
 C        -4.5019635484        7.3332224005       -3.4940531972
 C        -6.0278598969        9.1055083846       -2.3712546492
 C       -11.5432677212        3.7834797117       -4.8558936310
 C       -11.9206415556        6.1340918207       -5.3160257046
 C       -13.0644784207        6.0789578114        1.5102084701
 C       -10.8551383430        4.9232469135        2.0039738379
 C       -15.8049786686        2.8539111756        6.4493504749
 C       -15.5357504560        5.4038660646        6.8629305774
 H       -14.3746549926        4.5319044899        9.4975815563
 H       -12.9476372837        5.2355149350        8.6595646470
 H       -12.7706710255        3.7046363459        9.3622398810
 H       -14.2833790341        2.2571953662        4.1796899751
 H       -12.9551033424        2.3602316057        5.3290617669
 H       -12.0178648917        2.1988396232        3.1084001884
 H       -11.6539490082        3.7573591228        3.8048695967
 H       -14.1012858156        4.9897727702       -0.7058593978
 H       -13.8082031334        3.1689365181       -0.6573433115
 H       -14.0793455784        4.2306080850       -3.1204897983
 H       -12.6122544760        3.2723021147       -2.7874171732
 H       -10.2605064712        7.7787676438       -3.8581475286
 H        -9.0552570207        7.0202369060       -4.8126704159
 H        -8.6659658015        6.7042185670       -1.9173344495
 H        -8.5155882150        8.2481200193       -2.4161788182
 H        -3.8060070218        5.6705893171       -1.1704318320
 H        -5.0033783776        4.9142035968       -2.3676375154
 H        -5.8598104947        4.9262643128        0.5267858472
 H        -4.4488601013        3.8287050635        0.1761419720
 H        -6.5421293045        1.3616489276        1.1480156598
 H        -5.3430108772        0.1679012639        0.9429261605
 H        -7.6117754715       -0.6079862047        1.9083372765
 H        -7.4727627890       -1.4289818277        0.3570788973
 H        -8.4093560049       -1.8404278568       -2.6082379098
 H        -8.9042695540       -0.8877548837       -3.9599954719
 H       -10.0922798754       -2.0195796111       -3.0989151781
 H       -10.1099329945       -2.2606155604        0.7227505246
 H        -8.9624699454       -2.6079524564       -0.6015995063
 H       -10.7016420569       -2.5421606323       -0.9022945979
 H       -11.1746828424        0.6428436881        0.7456251230
 H       -12.1287308814       -0.5617341262       -0.2891886569
 H       -11.6517480384        0.9045709226       -0.9430346533
 H        -6.4746860893        1.0602400352       -3.4110000234
 H        -5.4965809688        2.4629813429       -3.8533277073
 H        -7.1566000672        2.7476581852       -3.2891944086
 H        -3.9481409320        2.1772324691       -0.6069722714
 H        -3.7736042300        2.7117192159       -2.3166137555
 H        -3.9985297435        1.0517668857       -2.0668360094
 H        -4.3711276034        8.3084857372       -4.0026574527
 H        -4.6023582623        6.5558739695       -4.2343114516
 H        -3.6836910225        7.0894746446       -2.7809206271
 H        -6.6557102566        9.2613365191       -1.4752189427
 H        -6.6053552049        9.5472989030       -3.2381916577
 H        -5.0898062036        9.6552399507       -2.3387554152
 H       -10.9972786418        3.7834652453       -5.7528776102
 H       -12.5054612541        3.4008277884       -5.2500041911
 H       -11.0788720064        2.9828211406       -4.2171361368
 H       -11.4404745886        6.0686040623       -6.2377560790
 H       -11.9415514089        7.1245326765       -4.8084185917
 H       -12.8629138967        5.8942195249       -5.6475378652
 H       -12.8701780337        6.4904681125        2.5110537048
 H       -14.1106987816        6.1451714936        1.1787997176
 H       -12.4911919447        6.7049920465        0.8459392147
 H       -10.2717142468        4.0376609982        1.8522422888
 H       -10.9576392168        5.2575234240        3.0554632983
 H       -10.4339985428        5.7816887579        1.4053677382
 H       -16.5946135373        3.0337439588        5.6759397599
 H       -16.3683955374        2.6733678614        7.3856503833
 H       -15.2006940503        1.9485666646        6.2363095834
 H       -16.0785970252        5.4977195365        7.8252343759
 H       -16.2474025227        5.5151545764        6.0779359152
 H       -14.7421309090        6.2070492664        6.8869771725
 Na       -9.5340765171        2.9450632537       -1.3888091765
