117

 C       -13.4180868329        4.8433083649        8.7311288076
 C       -13.9240259290        3.7045705994        7.7401692666
 O       -13.5442951227        2.5329193461        7.8310942844
 C       -14.9152676082        4.1046856252        6.5474909126
 C       -14.0655912886        4.0609058542        5.2283828379
 O       -13.8774849781        5.0353301833        4.5312116636
 C       -13.4157328644        2.6898745409        4.7213779471
 C       -12.4711679455        2.9495378255        3.5442182138
 C       -13.1171144016        3.7020524596        2.3310590812
 O       -14.2476509184        3.4319981425        1.9451816957
 C       -12.3392644945        4.7003073813        1.4060704201
 C       -12.3382665993        4.2598164624       -0.0663424401
 O       -11.2646110100        3.8846636888       -0.5256204528
 C       -13.6478701995        4.2739383699       -0.8797329668
 C       -13.2865685713        3.8725840029       -2.3547917380
 C       -12.5820059287        5.2009483728       -2.9818435388
 O       -12.9542316460        6.3032143248       -2.6358313323
 C       -11.4983779002        5.0524561767       -4.1313511413
 C       -10.0166292871        5.4712547693       -3.5072985733
 O        -9.2772582311        4.5805763108       -3.0124102875
 C        -9.5563778099        6.9490483593       -3.6545448882
 C        -8.2315171350        7.2326267854       -2.8549463159
 C        -6.8386896168        6.8919030088       -3.4769097402
 O        -6.7434931912        6.1921117428       -4.4818528917
 C        -5.5804522874        7.3583695934       -2.7509457318
 C        -5.4596994864        6.6655264878       -1.3696872507
 O        -6.0187582509        7.1707153287       -0.3939051835
 C        -4.6957778750        5.3365001919       -1.2026452299
 C        -5.2713260908        4.3592652893       -0.0870437306
 C        -6.1798716174        3.2701395442       -0.7217425259
 O        -7.3435312023        3.5056606012       -0.7566022330
 C        -5.5893539806        2.0892756674       -1.5526280243
 C        -6.2749903940        0.7608996391       -0.9750072296
 O        -6.5464933094       -0.1313110926       -1.7440325113
 C        -6.4128079519        0.5328313027        0.5344643954
 C        -7.7768112757       -0.2256491169        0.8185302956
 C        -9.0488070461        0.3994527078        0.2757549008
 O        -9.3202958328        1.5529880821        0.5343651399
 C       -10.0812907906       -0.3331339124       -0.5709164148
 C        -9.6165343452       -0.1963128272       -2.0627689588
 O        -9.7927007866        0.8071661246       -2.6911194555
 C        -8.9760362171       -1.3086720983       -2.8606771019
 C       -10.1115283436       -1.8660195856       -0.1510895406
 C       -11.4497074322        0.4215819167       -0.3213749955
 C        -5.9701468703        2.2966681165       -3.0296088134
 C        -4.0278461679        1.8745633864       -1.4184717809
 C        -4.3637917011        7.1070381671       -3.7155130657
 C        -5.5944968275        8.9587670841       -2.5758368963
 C       -11.4591479613        3.6936162647       -4.7341546007
 C       -11.8235186096        6.1131920715       -5.2275089941
 C       -13.0624372475        6.1081979578        1.6027532213
 C       -10.8136281987        4.9488798926        1.8739159768
 C       -16.0866846399        3.1185696576        6.4457649531
 C       -15.4711225262        5.4915189784        6.8503352851
 H       -14.2652196861        5.2485124811        9.3262184428
 H       -12.9658010666        5.6629029881        8.1115346287
 H       -12.6554684541        4.4815155517        9.3455147998
 H       -14.2492517921        1.9394530160        4.4168070150
 H       -12.7780093623        2.2270970960        5.5174063427
 H       -12.0785653887        2.0076277822        3.2127645045
 H       -11.5387817897        3.4608037717        3.8011345918
 H       -13.9440185076        5.3328179279       -0.8594975130
 H       -14.4264541872        3.5591525684       -0.4122573375
 H       -14.2261161624        3.6258944727       -2.9171118945
 H       -12.5386675364        3.1000673678       -2.4506828004
 H       -10.3552639948        7.6211944597       -3.3514495022
 H        -9.3443864285        7.1715162094       -4.7280133850
 H        -8.3888218344        6.9397341989       -1.8098125469
 H        -8.2192092541        8.3471256061       -2.6297662028
 H        -3.7569059788        5.5571120829       -0.8273676361
 H        -4.6930566386        4.7359180979       -2.1517862375
 H        -5.7984110787        4.9248062869        0.6152921698
 H        -4.4464881398        3.9314798242        0.6178725315
 H        -6.3811997532        1.5107021124        1.0740824156
 H        -5.6821918651       -0.1421387573        1.0627284465
 H        -7.9669648238       -0.3063475012        1.9056361429
 H        -7.6804954961       -1.2212448406        0.4697916632
 H        -7.9541304094       -1.3253107144       -2.5022276487
 H        -8.8669359814       -0.8856680438       -3.9340467886
 H        -9.5004335450       -2.2391031060       -2.7064756006
 H       -10.3492368653       -1.9224136280        0.8747955897
 H        -9.1133800972       -2.2927445940       -0.3971354523
 H       -10.8093057985       -2.4953406571       -0.6688451717
 H       -11.4735752068        0.7312020349        0.6639311443
 H       -12.3223930158       -0.0960000168       -0.6932149518
 H       -11.4888644515        1.2937098540       -0.9800374500
 H        -5.5266103016        1.6095753394       -3.8138970051
 H        -5.9378131901        3.3238270749       -3.2417428667
 H        -7.0094261630        2.0007259244       -3.0470708907
 H        -3.7647230645        1.5057614215       -0.3655376268
 H        -3.5692788315        2.8984100932       -1.7074531410
 H        -3.7568321672        1.1985068041       -2.1831325897
 H        -4.5929005646        7.3361838715       -4.7513123229
 H        -4.1605555384        6.0499183527       -3.6937638730
 H        -3.4476366525        7.6423350245       -3.3336427387
 H        -6.4880270769        9.2047505893       -1.9967958376
 H        -5.6180394575        9.4639816299       -3.5218274782
 H        -4.7493209382        9.3170076312       -2.0733237039
 H       -10.7955764337        3.5784579287       -5.5682564835
 H       -12.3793192002        3.3659079718       -5.1302503358
 H       -11.0772746601        2.9842510374       -3.9518959459
 H       -10.9568551375        6.1753963820       -5.9110249729
 H       -12.0683678526        7.0845017506       -4.6498559531
 H       -12.5776333986        5.8669554876       -5.9274235457
 H       -12.7883652912        6.4444903128        2.5671300752
 H       -14.1366208105        5.9833110260        1.4215097420
 H       -12.6821940493        6.8651999094        0.9033555792
 H       -10.2846050778        4.0455372888        1.8690168807
 H       -10.8849261729        5.3732677510        2.8737606427
 H       -10.4514684673        5.7411829289        1.2454752011
 H       -16.5282138846        3.0497835434        5.4565771293
 H       -16.8311318490        3.3627685734        7.1841210631
 H       -15.7386465148        2.1623938231        6.6992233507
 H       -16.0120624382        5.5169949818        7.7890988775
 H       -16.1406813242        5.7411461911        6.0925095646
 H       -14.6053208393        6.1871300211        6.8711253108
 Na       -9.4483758149        2.7875075909       -1.5045129191
