117

 C       -13.4004770904        4.8673221246        8.6098995705
 C       -13.9554839020        3.8003058584        7.7133828890
 O       -13.6092297791        2.6273047482        7.8291855550
 C       -14.9063620532        4.1559018307        6.5449190952
 C       -14.0331355194        4.0686403703        5.2277781601
 O       -13.7198328939        5.0850036994        4.6597629913
 C       -13.5107083031        2.6949296528        4.6806441649
 C       -12.4716545163        2.9568827736        3.5744844821
 C       -13.0923333933        3.6696029153        2.3445169981
 O       -14.2209026909        3.3796635770        2.0046957478
 C       -12.3561062879        4.8032039079        1.5245647514
 C       -12.3066021774        4.2467979035        0.0106101709
 O       -11.3136422471        3.7328032991       -0.4853438221
 C       -13.6075094265        4.2926383376       -0.8190094676
 C       -13.3388554365        3.9141301237       -2.3568503352
 C       -12.6285246565        5.0879811770       -3.0205699553
 O       -13.0337731254        6.1719068195       -2.7018631901
 C       -11.4015329310        5.0205484712       -4.0592358864
 C       -10.0080334445        5.4746683940       -3.4499807789
 O        -9.2970976165        4.6596000588       -2.9121673238
 C        -9.4914691094        6.8715802535       -3.5415490005
 C        -8.1912030529        7.1965442938       -2.8682901160
 C        -6.8656443002        6.8905825493       -3.5885605028
 O        -6.7922336338        6.2627630818       -4.6021588549
 C        -5.4925208420        7.2922870373       -2.8327945856
 C        -5.4380054538        6.5747295496       -1.4839871600
 O        -6.0653313839        6.9808853096       -0.5531956442
 C        -4.5449017993        5.2781114811       -1.1706491949
 C        -5.2439201100        4.4292052261       -0.0968465419
 C        -6.1419359195        3.3519630008       -0.6918014028
 O        -7.3538556625        3.4145522803       -0.6619326309
 C        -5.5341752722        2.1215265541       -1.4103923801
 C        -6.2111069656        0.7529607892       -0.9593295687
 O        -6.5285762250       -0.0432449198       -1.8342931311
 C        -6.4823558239        0.4826485638        0.5021454813
 C        -7.8459930303       -0.0894496897        0.9154431782
 C        -9.1181400203        0.5390736781        0.2982727788
 O        -9.3913407851        1.7369805983        0.4192864862
 C       -10.0734436205       -0.3295685405       -0.6068728608
 C        -9.6503120982       -0.1998851720       -2.1284174670
 O        -9.7906080147        0.8752647252       -2.6729011839
 C        -9.0314775337       -1.4916310087       -2.7903010310
 C       -10.2788301847       -1.8320273842       -0.0884261366
 C       -11.5191372082        0.2889126440       -0.4512387589
 C        -5.8752711106        2.4141169097       -2.9116246333
 C        -3.9168691746        1.9662045125       -1.3770259842
 C        -4.3339432045        7.0123481442       -3.8250858479
 C        -5.5352258355        8.8727043493       -2.5162779847
 C       -11.4269070572        3.6541197466       -4.7735339821
 C       -11.7527949373        6.0375812337       -5.2404667779
 C       -13.0733299505        6.1201251844        1.7283652184
 C       -10.8356134738        5.0313160181        1.9050276839
 C       -16.0977294941        3.1204950391        6.4961808969
 C       -15.4687550420        5.5816172512        6.5951948314
 H       -14.1555512005        5.4697511433        9.1241446798
 H       -12.8239941963        5.4672869919        8.0037253856
 H       -12.7245498865        4.3888957652        9.3254264846
 H       -14.3797879377        2.1423983628        4.2809936169
 H       -13.0695393808        2.1184928589        5.4489500639
 H       -11.9613417202        2.0356803717        3.3385454577
 H       -11.6264114511        3.5622703478        3.9056497559
 H       -13.9670632266        5.3781600399       -0.7216123735
 H       -14.3320380461        3.5506303503       -0.4552409399
 H       -14.3764544323        3.8609438027       -2.7283866339
 H       -12.7834546431        2.9563521149       -2.5552365105
 H       -10.3256079093        7.5365071214       -3.1703012309
 H        -9.3413847795        7.1256837655       -4.5665047927
 H        -8.1853785848        6.7140120703       -1.8881293430
 H        -8.2456791028        8.2141747665       -2.4779218830
 H        -3.5986016323        5.5448464020       -0.7128938444
 H        -4.4675236443        4.5941626395       -2.0471873345
 H        -5.7530040375        5.1187452494        0.6104438974
 H        -4.5906167486        3.9594580979        0.6241328047
 H        -6.3116270409        1.4273265712        1.0774859050
 H        -5.8315764386       -0.3033696156        0.9651501114
 H        -7.9633769447        0.0250282675        1.9822275150
 H        -7.8717664994       -1.1544007933        0.7330827172
 H        -8.0568381151       -1.6525114495       -2.3744138441
 H        -8.8904751054       -1.2765804748       -3.8677415733
 H        -9.7290175928       -2.3024267022       -2.5515964837
 H       -10.4350021662       -1.8816229165        0.9370738838
 H        -9.4261853478       -2.4164421893       -0.4368039804
 H       -11.1532701924       -2.2981881068       -0.5351806274
 H       -11.7780087207        0.2122823967        0.6127223603
 H       -12.2362274089       -0.1592555127       -1.0932261748
 H       -11.5335637425        1.2611225991       -0.7221617249
 H        -5.2355321795        1.8004362255       -3.5571341470
 H        -5.8398851569        3.4928442770       -3.0828514972
 H        -6.9054366121        1.9785509015       -3.1885641427
 H        -3.6290543295        1.6873565043       -0.2741042944
 H        -3.4931720604        2.8484348387       -1.7342314920
 H        -3.6551630855        1.1348611907       -2.0372238790
 H        -4.5798150430        7.3379614268       -4.8801137756
 H        -4.1923958300        5.9370484854       -3.8562172041
 H        -3.3976127707        7.4905150903       -3.4715726150
 H        -6.4285208110        8.9892104008       -1.9796387656
 H        -5.4969839329        9.4845278005       -3.3998260034
 H        -4.7694120293        9.2028446496       -1.8645071253
 H       -10.6987728065        3.5946674956       -5.5208572303
 H       -12.4128114706        3.4765031757       -5.2915204518
 H       -11.1806225861        2.8302435855       -4.1143899009
 H       -11.1203218926        5.9255875983       -6.1368501037
 H       -11.8816309795        7.0538686710       -4.8447922459
 H       -12.7538802931        5.7589568906       -5.5722058859
 H       -12.7273189837        6.4902627633        2.7360989772
 H       -14.1572415014        5.9920665943        1.6312142565
 H       -12.7269432899        6.8488866566        1.0137162991
 H       -10.4001436683        4.1275975183        1.5718871094
 H       -10.7232454365        5.0784152547        2.9768529391
 H       -10.4741692919        5.9741387223        1.4652637835
 H       -16.7180004071        3.2362555350        5.5987678811
 H       -16.6685150479        3.2634806111        7.4144533588
 H       -15.7766817089        2.0525308663        6.5210696443
 H       -15.7911066376        5.9537678297        7.5880709144
 H       -16.2960004048        5.6313023216        5.8843441411
 H       -14.6317140926        6.1826096625        6.1771576571
 Na       -9.4753826157        2.8109167005       -1.5617837253
