117

 C       -13.3700204533        4.9333007692        8.4966934333
 C       -13.9197214210        3.8079932099        7.6594152865
 O       -13.6558166198        2.6659684744        7.8470957988
 C       -14.9198366179        4.2483775303        6.4140801631
 C       -14.0197730280        4.0803432203        5.1719761097
 O       -13.5177001970        5.1279038973        4.7547883145
 C       -13.6032921749        2.7570642115        4.6398729268
 C       -12.4842169238        3.0086554091        3.6347767407
 C       -13.1033694813        3.6788686293        2.3868369010
 O       -14.1896210645        3.3056225283        2.0270037158
 C       -12.2970215089        4.7731345139        1.5377787709
 C       -12.3229702586        4.2807388876        0.0685611112
 O       -11.3540553312        3.6649640973       -0.3421265472
 C       -13.6288072071        4.2877549099       -0.8205483129
 C       -13.2733707679        3.9253319554       -2.2504696393
 C       -12.5908078022        5.1578571728       -2.9536364366
 O       -13.0379810199        6.2776316208       -2.8174148312
 C       -11.4081399707        4.9792409805       -4.0702772442
 C       -10.0104612510        5.3591436039       -3.4326510981
 O        -9.3626451836        4.6217850368       -2.7806104797
 C        -9.4730298621        6.8717057861       -3.5658754186
 C        -8.1476617537        7.1422275560       -2.8123058609
 C        -6.8824806520        6.7784782301       -3.5880626616
 O        -6.9353203420        6.3580625409       -4.7245806544
 C        -5.4677163292        7.2180193713       -2.9116570674
 C        -5.4384069536        6.4966395885       -1.5354592163
 O        -6.1984677411        6.8570375770       -0.6695787185
 C        -4.4831134004        5.3273478122       -1.2392942855
 C        -5.1485395117        4.4356870034       -0.1445542581
 C        -6.0818807748        3.3411858656       -0.6351210606
 O        -7.3222608691        3.4331488066       -0.4999103438
 C        -5.4867123910        2.1299109556       -1.4100946030
 C        -6.2111410829        0.8130382377       -1.0344809374
 O        -6.5274725604       -0.0040920413       -1.8701931738
 C        -6.5368372875        0.5833844800        0.5152167924
 C        -7.9038423119       -0.0685443981        0.9529150012
 C        -9.1384659724        0.6262600337        0.2161630583
 O        -9.3149542266        1.8065847434        0.4304256846
 C       -10.1707142466       -0.3335259323       -0.5954059056
 C        -9.7281143519       -0.2921697587       -2.0558456248
 O        -9.6894636676        0.7728866627       -2.7096562626
 C        -9.1961903041       -1.5221760181       -2.7287631218
 C       -10.2795431393       -1.7469450191       -0.0378202759
 C       -11.6474726840        0.1765701537       -0.6188169674
 C        -5.8078430530        2.4382434268       -2.9092128587
 C        -3.9437576836        2.0267227015       -1.1854431505
 C        -4.2815612373        6.9342396788       -3.8647951514
 C        -5.4537507638        8.7107386704       -2.5215034066
 C       -11.2668171771        3.5380706009       -4.6932484653
 C       -11.7828202290        6.0374183743       -5.2203955461
 C       -13.1348877035        6.0704877945        1.7353153149
 C       -10.7853738668        5.0085083816        1.9699607121
 C       -16.0433491138        3.1393150424        6.5171496732
 C       -15.5485121103        5.7089399652        6.4143177115
 H       -14.1642109955        5.5229932419        8.8358617021
 H       -12.6840060114        5.5437294016        7.9384852496
 H       -12.8576034746        4.4864174394        9.3728389564
 H       -14.4367068675        2.3583536035        4.1706326669
 H       -13.3727991178        2.0941332043        5.4556355848
 H       -12.0317986418        2.0421123298        3.3040175648
 H       -11.6064674472        3.5192892820        4.0059622352
 H       -14.1242117161        5.2767282267       -0.7202807731
 H       -14.2438694245        3.4858563407       -0.4745622509
 H       -14.2508003061        3.7811574701       -2.6987498898
 H       -12.6643598005        2.9863127335       -2.3308288915
 H       -10.3320211146        7.4629667382       -3.1640810553
 H        -9.2881887759        7.1820544062       -4.5898183224
 H        -8.2002348695        6.5460256130       -1.8995748069
 H        -8.0871861936        8.0847190485       -2.3577576409
 H        -3.5387340562        5.7420392182       -0.7193881249
 H        -4.2932453103        4.7510074609       -2.1024877210
 H        -5.6779702628        5.1589526169        0.5671105351
 H        -4.5132448140        4.0514895036        0.5723500397
 H        -6.3800140621        1.4765877708        1.1226943152
 H        -5.8268686199       -0.1812845417        0.8134115646
 H        -8.1425020704        0.1276036318        1.9865460848
 H        -7.8923717790       -1.1784870238        0.8367884232
 H        -8.2551799864       -1.8767822320       -2.2684975181
 H        -9.0225497538       -1.2281602057       -3.6789310116
 H       -10.0096057392       -2.2484710743       -2.6612546592
 H       -10.5149092126       -1.7970678431        1.0585104892
 H        -9.4143320296       -2.2636862783       -0.3046896341
 H       -11.1220358358       -2.2494667292       -0.5089976901
 H       -12.2027322360       -0.1570772444        0.2672133318
 H       -12.1482061053       -0.1406031868       -1.4992432518
 H       -11.6359808531        1.3010305895       -0.6706970276
 H        -5.2788674801        1.7016233707       -3.4570344279
 H        -5.5276800156        3.5259015508       -3.1695164827
 H        -6.8492859576        2.2040043755       -3.1794143858
 H        -3.8514009374        2.0009945860       -0.1820763836
 H        -3.4150905205        2.8184668764       -1.6503756378
 H        -3.6031692414        0.9979737803       -1.5441487988
 H        -4.3880884762        7.4594344937       -4.8445775280
 H        -4.3017259664        5.8277696707       -4.0516918889
 H        -3.3311715017        7.2209648716       -3.4318291281
 H        -6.2077657332        8.8846096765       -1.7763007257
 H        -5.4534232115        9.3782735127       -3.3644009041
 H        -4.5090449677        8.8986281034       -1.9624895272
 H       -10.3864738011        3.4941318834       -5.4076073719
 H       -12.1819663814        3.1704015320       -5.2257726393
 H       -10.9661240384        2.8468432577       -3.9561267981
 H       -11.1905929786        5.9265582899       -6.1441044374
 H       -11.8339623431        6.9927869413       -4.8600888672
 H       -12.8718546901        5.7789346030       -5.4474087038
 H       -13.0114200931        6.4270728257        2.7832208035
 H       -14.1553083878        5.7474556431        1.5341542406
 H       -12.8564740154        6.8816132029        1.0436636094
 H       -10.1839267670        4.1221847490        1.6178749293
 H       -10.7882538261        4.9751079142        3.0502365137
 H       -10.4961004955        5.9983934462        1.6354124501
 H       -16.8319865017        3.2814386884        5.7598958516
 H       -16.4417090964        3.1416544278        7.5541058749
 H       -15.6815756370        2.0763295292        6.3398322432
 H       -15.8024333492        5.9629847840        7.4629600505
 H       -16.5049080900        5.7561066780        5.7689922524
 H       -14.8157286598        6.3837961766        5.9976328273
 Na       -9.5187962619        2.8963152722       -1.6406986757
