117

 C       -13.3304295777        5.0920430144        8.4180970173
 C       -13.9969939956        3.9472219355        7.6014713925
 O       -13.7276605083        2.7572972136        7.7615561366
 C       -14.9347378179        4.2833046932        6.4417073326
 C       -13.9462407004        4.2047543874        5.1508427613
 O       -13.3035752416        5.1719439385        4.7740995907
 C       -13.6594183231        2.8011568367        4.6014992690
 C       -12.4915078492        2.9327617854        3.6450882538
 C       -13.0203357277        3.5879020620        2.3812075353
 O       -14.1336748238        3.3127457743        1.9560644355
 C       -12.3410298462        4.7082647447        1.5943113149
 C       -12.3295097075        4.1753677884        0.1496538991
 O       -11.3172697192        3.6367366330       -0.2737855186
 C       -13.5592578960        4.3252587220       -0.7724296432
 C       -13.1193025720        4.0084488105       -2.2275843515
 C       -12.5314275419        5.2180892775       -3.0187222319
 O       -12.9594863973        6.3497315748       -2.8518127026
 C       -11.3938865010        5.0148051138       -4.0719098948
 C       -10.0873201968        5.4646610948       -3.3986823700
 O        -9.3955963382        4.6507664895       -2.7536753715
 C        -9.5009683206        6.8234754016       -3.6033911243
 C        -8.1833188757        6.9997842980       -2.7782689341
 C        -6.9186925583        6.8730409944       -3.6326010826
 O        -6.9886752636        6.4320444418       -4.7765190153
 C        -5.5194483633        7.1433371079       -2.9517975100
 C        -5.5035844874        6.3661433591       -1.5739714068
 O        -6.3474963611        6.7760433940       -0.7639413642
 C        -4.5003158081        5.3237917208       -1.2563176582
 C        -5.0370674300        4.4369318022       -0.0912301816
 C        -6.0593841953        3.4231611491       -0.6535323793
 O        -7.2313440960        3.5234931678       -0.3648029089
 C        -5.4808578540        2.1494236450       -1.4123165133
 C        -6.3367040067        0.8502627679       -1.0096685201
 O        -6.5695337041       -0.0010765197       -1.8204587695
 C        -6.5817165458        0.6884300078        0.4980819218
 C        -7.8770764627       -0.0820503032        0.8008643287
 C        -9.2415829895        0.5762842517        0.2920401011
 O        -9.3194558748        1.7555830988        0.3502585142
 C       -10.2124499383       -0.3412758724       -0.5344209706
 C        -9.6486324764       -0.3077166842       -2.0719051429
 O        -9.6001998477        0.7502647083       -2.6749939690
 C        -9.3465038107       -1.6643681768       -2.7519188776
 C       -10.1762610165       -1.7276920439        0.0504509172
 C       -11.7115850551        0.3120641951       -0.6800649872
 C        -5.6928631669        2.3950039807       -2.9740166709
 C        -4.0405758832        1.9536012469       -1.0122468058
 C        -4.3293132315        6.7621453022       -3.8704227346
 C        -5.3941342604        8.6428624536       -2.6411947305
 C       -11.1613326740        3.5858736012       -4.5080325973
 C       -11.7875781153        5.9030172875       -5.2163383207
 C       -13.2080952747        6.0778029707        1.7187197251
 C       -10.8933075669        4.9673248766        2.0285962816
 C       -16.0373962268        3.1887819888        6.4474792359
 C       -15.5838233299        5.6110898741        6.4579810793
 H       -14.1279061217        5.7439049919        8.7662274892
 H       -12.5743446699        5.7081560848        7.8153901903
 H       -12.8793342499        4.6920832257        9.2840898649
 H       -14.5686033133        2.3600605317        4.2090543720
 H       -13.4371903184        2.1603532519        5.5012472918
 H       -11.9714336028        1.9787991458        3.3891204621
 H       -11.6660433922        3.5169736732        4.0705412523
 H       -13.8849707113        5.3022084232       -0.5965381113
 H       -14.2993199533        3.6036693043       -0.3937317574
 H       -13.9517081879        3.5793503574       -2.7920183935
 H       -12.3433555693        3.2754049477       -2.1553172735
 H       -10.2777683989        7.5329258683       -3.3829444960
 H        -9.1564191935        6.9371603784       -4.6865466065
 H        -8.1992353028        6.4417660845       -1.8482038878
 H        -8.1585348234        7.9954135023       -2.3420262140
 H        -3.6094641186        5.8594547667       -0.8734399580
 H        -4.2937551349        4.7224613724       -2.1317446413
 H        -5.4319936122        5.0314570123        0.6977377003
 H        -4.2424704173        3.9761383954        0.5546167801
 H        -6.6991272387        1.6556126793        0.9411152372
 H        -5.7558814290        0.1362843317        0.9051327932
 H        -8.0876440234       -0.1701590082        1.8944571261
 H        -7.8303148291       -1.1070402284        0.4182764291
 H        -8.5543240185       -2.1187515101       -2.1760834045
 H        -9.0242501974       -1.4622500133       -3.8042494764
 H       -10.2342048076       -2.2291517721       -2.7206494613
 H       -10.5753351558       -1.6866507101        1.0961796681
 H        -9.1486419188       -2.1092495258        0.0096595089
 H       -10.8456202376       -2.4201701993       -0.4470917160
 H       -12.3883921640       -0.0993679561        0.0626858219
 H       -12.1505096856       -0.0112496038       -1.6783625466
 H       -11.7408425531        1.4774465627       -0.6753658781
 H        -5.4951895491        1.4407505957       -3.5004540657
 H        -5.0802444061        3.2246224579       -3.3073372734
 H        -6.7064158992        2.5966688301       -3.1616927501
 H        -3.9437967850        1.9237377325        0.0486450111
 H        -3.3919353385        2.7233876883       -1.5122730010
 H        -3.7899166332        0.9786669856       -1.2947742219
 H        -4.2550864832        7.5087149743       -4.6458669396
 H        -4.3977604982        5.7607679003       -4.3242278562
 H        -3.3665824626        6.8799538085       -3.3231259820
 H        -5.9672990078        8.9780302844       -1.7198606385
 H        -5.5824128881        9.1940960675       -3.5729502639
 H        -4.3373307404        8.8789390766       -2.3759553273
 H       -10.3205711738        3.4026109602       -5.2588618340
 H       -12.0820382957        3.2043425067       -4.8871315874
 H       -10.8412523156        2.9391878761       -3.6460276201
 H       -10.9966533341        5.9038938992       -5.9624026796
 H       -11.9234475192        6.9343746673       -4.8068996099
 H       -12.7735836980        5.6434110717       -5.6030903623
 H       -13.2754378639        6.3743337013        2.7343510837
 H       -14.2104458076        5.8314701800        1.3562857179
 H       -12.7657806338        6.8935635655        1.1022203970
 H       -10.2602586645        4.0652477151        1.8630957849
 H       -10.9514349520        5.1638800430        3.1196293701
 H       -10.6254176153        5.8692017587        1.4899129393
 H       -16.7797394115        3.3900961739        5.6465368034
 H       -16.5069601057        3.0857747859        7.4506449900
 H       -15.6577935489        2.2102587456        6.1931292230
 H       -15.9855979139        5.7139723562        7.4684217780
 H       -16.3885405442        5.6659727307        5.7179719706
 H       -14.8315335534        6.3736499227        6.2024006921
 Na       -9.5642916873        2.8505081894       -1.6126297951
