117

 C       -13.3319406056        5.3623944124        8.2084582092
 C       -14.0225310566        4.1505332454        7.6116189307
 O       -13.7047947923        3.0418337689        7.9723919761
 C       -14.9825246575        4.4119361566        6.2861689104
 C       -13.8020852824        4.3114687014        5.2827982504
 O       -13.2093403403        5.3427150486        4.9386761696
 C       -13.5290369041        2.8937622372        4.7866293145
 C       -12.6583301825        2.8169197779        3.5521241406
 C       -13.2017861922        3.5202174540        2.2920855513
 O       -14.1583272872        3.1089224010        1.6589166050
 C       -12.3696928837        4.6874869605        1.6788293381
 C       -12.1576598714        4.2719949010        0.2232797751
 O       -11.0990712631        3.7866254144       -0.1434880453
 C       -13.3057726812        4.5365554614       -0.8035059560
 C       -13.0463439445        4.1355019658       -2.2152251385
 C       -12.3439620906        5.2879794593       -3.0598799831
 O       -12.5742364877        6.4685822007       -2.8307658724
 C       -11.3144086973        4.9548280596       -4.2105352201
 C       -10.0353197688        5.4842392841       -3.4177797459
 O        -9.4097265731        4.8262268502       -2.6168180911
 C        -9.6480565415        6.9835000554       -3.7521716484
 C        -8.3401138179        7.4937087750       -3.0889585558
 C        -7.0945437475        6.9508943752       -3.7579582889
 O        -7.0854344930        6.6598222587       -4.9438418090
 C        -5.6512560025        6.9457630897       -3.1043676575
 C        -5.6539514719        6.3106639714       -1.6424117045
 O        -6.5131037817        6.6419248325       -0.8249602422
 C        -4.4751326241        5.4210023686       -1.1832794690
 C        -4.9284229876        4.4567237396       -0.0943141071
 C        -5.9140071569        3.4271466885       -0.5952602946
 O        -7.1178250018        3.7069160293       -0.7782499789
 C        -5.4450366545        2.1184119067       -1.2735172703
 C        -6.4828565178        0.9587027677       -0.8293166881
 O        -6.9417823404        0.2615330856       -1.6706315074
 C        -6.7433720710        0.7384206565        0.6630205604
 C        -7.7932785525       -0.4134269603        0.8778713949
 C        -9.1998587689        0.2200531260        0.4193843864
 O        -9.3721463986        1.3618079371        0.7099375480
 C       -10.2682473776       -0.5010784322       -0.5472614271
 C        -9.7487626917       -0.4999628381       -2.0465243815
 O        -9.2598853625        0.5057272440       -2.5349870335
 C        -9.6967732614       -1.7786211849       -2.8857612839
 C       -10.4885882745       -1.9528995521       -0.0701720643
 C       -11.5984333475        0.3237473007       -0.4967595082
 C        -5.5405641010        2.3994414176       -2.8234664707
 C        -4.0375799290        1.5564658802       -0.8126945821
 C        -4.5949673765        6.3111268459       -3.9988490014
 C        -5.3005882560        8.4645340069       -2.9410139406
 C       -11.2802580630        3.4279648365       -4.5258599719
 C       -11.5964913324        5.7623398984       -5.4984006283
 C       -13.3414546131        5.9337160941        1.8110417554
 C       -11.0665705874        4.9796540217        2.3769827191
 C       -16.0638605378        3.3927915496        6.1643950350
 C       -15.6178644294        5.8110830561        6.3437813574
 H       -14.0070549714        5.8210447997        8.8685113858
 H       -13.0245916175        6.0895325823        7.4313029568
 H       -12.5386545091        5.0193117649        8.8341733642
 H       -14.4597353134        2.5663183662        4.5409150891
 H       -13.3116495104        2.2306218532        5.6151626789
 H       -12.5397686591        1.7521174130        3.2340346468
 H       -11.6666544225        3.1935893063        3.7370499403
 H       -13.4694879472        5.6537076795       -0.7223529729
 H       -14.1341478688        4.0813443891       -0.2622717354
 H       -14.0275026087        4.0290120425       -2.7148124294
 H       -12.4947358851        3.1501402698       -2.3094590823
 H       -10.4448539227        7.6799263715       -3.4435677048
 H        -9.4679968601        6.9955608559       -4.8283672111
 H        -8.3377897757        7.3164293419       -1.9981301885
 H        -8.4299264968        8.5591028397       -3.0904099782
 H        -3.5911035106        6.0691155086       -0.7962051312
 H        -4.0548683927        4.8504140144       -1.9869373591
 H        -5.4095703798        5.0151695951        0.7560845438
 H        -4.0961746357        4.0843349922        0.4505401306
 H        -7.1672383468        1.6294979225        1.1715138815
 H        -5.8242110993        0.3304876421        1.1088664067
 H        -7.8339900609       -0.6138783791        1.9222621582
 H        -7.5808067538       -1.3431721741        0.3243497790
 H        -9.0620014201       -2.5018720859       -2.3401085495
 H        -9.3099201663       -1.4928989147       -3.8543714046
 H       -10.7044487156       -2.1178389809       -3.0488220523
 H       -10.8065312947       -2.0001253407        1.0044554092
 H        -9.7126228940       -2.6367435058       -0.1823919275
 H       -11.3593051779       -2.2394517893       -0.6234138192
 H       -11.8704782547        0.5591809559        0.4631633074
 H       -12.3970365615       -0.2544348370       -0.8401140298
 H       -11.4158943806        1.2655444562       -1.0556298156
 H        -5.9934570879        1.5227012412       -3.3207754744
 H        -4.4951584230        2.5620645841       -3.2813297428
 H        -6.1128614392        3.3220580582       -2.9462339749
 H        -3.9700814986        1.2740110123        0.1936789420
 H        -3.2908513095        2.3935453750       -0.9535875498
 H        -3.8200880981        0.6685467956       -1.4181855777
 H        -4.7215961216        6.6611892612       -5.0127135844
 H        -4.6341848946        5.1796392825       -3.9939110663
 H        -3.5897724932        6.6352472528       -3.7748516106
 H        -5.8985832757        9.0254793525       -2.2683044800
 H        -5.3171657224        8.8612958430       -3.9051197762
 H        -4.2874367466        8.5426528023       -2.5754134245
 H       -10.6163017321        3.3975755224       -5.4303906537
 H       -12.2125694522        2.9168332169       -4.6014966690
 H       -10.6947482848        2.9282615756       -3.7966143363
 H       -10.6989139860        5.8060281228       -6.0926477468
 H       -11.8738831451        6.7768014270       -5.3233813450
 H       -12.4721096270        5.2236614333       -5.8920793708
 H       -13.4932390618        6.2231128066        2.8411272874
 H       -14.3388972133        5.6416218598        1.4923989719
 H       -12.9340151070        6.7232657742        1.1538258953
 H       -10.3270207467        4.1382914378        2.4321648546
 H       -11.3557528479        5.3241087223        3.3533818468
 H       -10.6139778437        5.7438154283        1.7874720979
 H       -16.3424820234        3.0806286184        5.1683899048
 H       -17.0017454702        3.7553467832        6.5712064298
 H       -15.7615322701        2.4999228484        6.7062713584
 H       -16.3207109118        5.7955821910        7.1569070737
 H       -16.1036477873        5.9605116673        5.3541070893
 H       -14.8668874828        6.5586244907        6.4212684193
 Na       -9.2143741607        2.8123252171       -1.3962883432
