117

 C       -13.3440137684        5.4623530214        8.2500618583
 C       -14.0389904414        4.2638265970        7.6518270970
 O       -13.8817761064        3.0782008718        7.9786606763
 C       -14.9460672400        4.4824274690        6.3843861649
 C       -13.8813468309        4.3473384961        5.2118071126
 O       -13.1657378593        5.2764148089        4.8755169974
 C       -13.5971819388        2.9242308500        4.7119228509
 C       -12.6196529499        2.7310475287        3.5254180896
 C       -13.1456166649        3.4527355136        2.2755604380
 O       -14.1480531613        3.0368829983        1.7122217464
 C       -12.3816954817        4.7620424693        1.7041893064
 C       -12.1062966572        4.4114647059        0.1847465547
 O       -11.0547672482        3.8857741326       -0.1617514602
 C       -13.2992772854        4.6313507055       -0.8399709414
 C       -12.9999657660        4.2313974967       -2.2829651368
 C       -12.2766118563        5.2994065700       -3.1038267246
 O       -12.4564706025        6.4691116232       -2.8886424227
 C       -11.2445380791        4.8938436108       -4.1796819765
 C        -9.9624599882        5.5084786767       -3.5235006724
 O        -9.3710471973        4.8235919910       -2.6503070357
 C        -9.6855753155        6.9890718551       -3.7914726514
 C        -8.3975396081        7.5164396857       -3.1400792554
 C        -7.1477051977        6.9912020304       -3.8934431124
 O        -7.2630368580        6.6212938444       -5.0302535288
 C        -5.6623365071        6.9002231865       -3.1474055843
 C        -5.6592507213        6.3390703340       -1.6494672791
 O        -6.5291620203        6.7040719933       -0.8778035434
 C        -4.5134988803        5.4597728616       -1.1527200100
 C        -4.9381720340        4.4519590157       -0.0697842197
 C        -5.8979437094        3.4591594712       -0.6461735540
 O        -7.0426654011        3.7646705482       -0.7991502819
 C        -5.4273535995        2.0507521004       -1.2074585447
 C        -6.4789712593        0.8278467747       -0.8020944772
 O        -7.0795652966        0.2836923504       -1.7182953333
 C        -6.6276485902        0.4831565869        0.6825811738
 C        -7.9063154402       -0.4207340852        0.8670008232
 C        -9.2035830467        0.1835439710        0.4298947544
 O        -9.5255042374        1.2782304297        0.8066430186
 C       -10.2060244659       -0.6028477116       -0.5441183622
 C        -9.6867167846       -0.5016878202       -1.9755591710
 O        -9.4003223065        0.6136456864       -2.3900555920
 C        -9.8136222725       -1.7378045650       -2.8405087348
 C       -10.5464594821       -2.0999211019       -0.1088958946
 C       -11.5371999466        0.2538250802       -0.5010846408
 C        -5.4734120366        2.2582609441       -2.7569775509
 C        -4.0131364393        1.6981885839       -0.7608396975
 C        -4.6633777948        6.2383956731       -4.0678317445
 C        -5.1909911704        8.4130701342       -2.8924322081
 C       -11.1456622278        3.4045144123       -4.5527647450
 C       -11.6717777197        5.7162315744       -5.4439950374
 C       -13.3876454907        5.9399917714        1.8265124378
 C       -11.0566811411        5.0172634128        2.4522197734
 C       -16.0378539614        3.3962329899        6.3264549395
 C       -15.5479138993        5.9245633009        6.2180220520
 H       -14.0200015308        5.8401672021        9.0006982335
 H       -13.0911249849        6.2508949691        7.5311093427
 H       -12.5501828322        5.1172001618        8.8072799780
 H       -14.4489625639        2.2744483876        4.6197417787
 H       -13.1819893670        2.5240872866        5.6067792066
 H       -12.5827826796        1.6415312092        3.2984381715
 H       -11.6148445286        3.1022692028        3.7538171887
 H       -13.5429992952        5.6382477981       -0.7021023185
 H       -14.0740862695        4.0864673077       -0.2808906973
 H       -13.9241446377        3.8670928162       -2.8164300097
 H       -12.2846766182        3.4033915911       -2.2712683889
 H       -10.4990497694        7.5321262165       -3.3515507104
 H        -9.5626356244        7.1526864384       -4.9009220993
 H        -8.3678278854        7.5183502294       -2.0745845247
 H        -8.5151264374        8.5702365493       -3.3543116682
 H        -3.7658593329        6.1828530565       -0.7452876963
 H        -3.9381904085        4.9451448094       -1.9696834151
 H        -5.4424958113        4.9615442597        0.6976383361
 H        -4.0475278180        4.0369573979        0.5378374874
 H        -6.8516993110        1.4220389018        1.1702116693
 H        -5.8296093791       -0.0904836045        1.1076504676
 H        -8.0577420538       -0.5111410055        1.9729794508
 H        -7.8301345342       -1.4254799410        0.4532354248
 H        -9.2186539221       -2.4747604242       -2.3886959180
 H        -9.5138023426       -1.4691045981       -3.9058219240
 H       -10.8254514060       -1.9833309334       -2.8933018453
 H       -10.9148273174       -2.1314778750        0.8972137568
 H        -9.7090728120       -2.8349705698       -0.0683578328
 H       -11.3152933293       -2.4337974955       -0.7658706790
 H       -11.7401330856        0.6642121333        0.4631881415
 H       -12.3887445623       -0.4488527077       -0.6436754205
 H       -11.4421112553        1.0717095783       -1.1830440521
 H        -5.8047743720        1.2857590900       -3.3136611915
 H        -4.5641182187        2.6086621402       -3.1969478395
 H        -6.2260424697        3.0514001474       -2.8329911558
 H        -3.8567599037        1.7107062654        0.3571242263
 H        -3.3374043862        2.4672343426       -1.0983590268
 H        -3.7477814526        0.7975627997       -1.1224206249
 H        -4.9092051330        6.4291481627       -5.1007541852
 H        -4.6356013908        5.1475006007       -3.9232345157
 H        -3.6124786643        6.6276344865       -3.9834572289
 H        -5.9146231176        9.0152782191       -2.3324050466
 H        -5.0159360703        8.8689951723       -3.8383869201
 H        -4.2919207851        8.3845817921       -2.3386336982
 H       -10.4946137143        3.3663517774       -5.4432148552
 H       -12.0984079897        2.9847773300       -4.6799647237
 H       -10.6478125373        2.7866358642       -3.7358128139
 H       -10.8802428791        5.6532221242       -6.1296678491
 H       -11.6925085510        6.8170984230       -5.2025595686
 H       -12.5998299058        5.3691455532       -5.7418813752
 H       -13.5698713703        6.1594068944        2.8472036768
 H       -14.3911034983        5.6330322282        1.4847691007
 H       -12.9911931542        6.7892223253        1.2260492321
 H       -10.2469900393        4.4000936535        2.0510841948
 H       -11.2478618992        4.8785464199        3.5445051300
 H       -10.7321390790        6.0443179076        2.2196016951
 H       -16.3760765242        3.1868647829        5.2756897701
 H       -17.0059021810        3.6507151585        6.8227803065
 H       -15.6360905531        2.4683705026        6.7212476064
 H       -16.0739981277        6.1494273902        7.1607945692
 H       -16.2238988856        5.8639585374        5.3786910532
 H       -14.7335598488        6.6691382029        5.9510024715
 Na       -9.0678135182        2.8144241474       -1.3548712904
