117

 C       -13.4751378616        5.7492206384        8.2598820947
 C       -14.1290174161        4.4959821557        7.6880145764
 O       -14.0502428146        3.5020753566        8.3582055695
 C       -14.8645751148        4.6235338792        6.3511692222
 C       -13.8817422654        4.2388142798        5.2407454628
 O       -13.1514446850        5.0767773908        4.7910131633
 C       -13.7678464382        2.8284921570        4.5450736633
 C       -12.5757945478        2.7845269390        3.5457863434
 C       -13.0529283561        3.5230397149        2.2424249972
 O       -13.9046456444        2.9822975585        1.5696066201
 C       -12.3617608405        4.8268255798        1.6770788743
 C       -11.9896121625        4.5226457846        0.1994418906
 O       -10.8481091639        4.2113777919       -0.0775597767
 C       -13.1332839729        4.4651807539       -0.8277113645
 C       -12.7821067117        4.0630341450       -2.2343835556
 C       -12.1287343244        5.1897071375       -3.0394985757
 O       -12.5128319423        6.3057869392       -2.9088186522
 C       -11.0671695585        4.8221376101       -4.2160282451
 C        -9.7373047196        5.4784768362       -3.6593637362
 O        -8.8296727864        4.7801888555       -3.1502547169
 C        -9.6655244191        7.0267916558       -3.7856736569
 C        -8.3554191221        7.5708385739       -3.2351563788
 C        -7.0954964594        6.8583166710       -3.9718538106
 O        -7.3269820278        6.3232973847       -5.0244420291
 C        -5.6568637835        6.9306328785       -3.2973759981
 C        -5.6589857636        6.3037056501       -1.8460328592
 O        -6.4612659652        6.6621969402       -1.0396271704
 C        -4.6269967267        5.2171393487       -1.3005873967
 C        -5.1686557575        4.3635752125       -0.0788356639
 C        -6.0911734337        3.2410815294       -0.5455942346
 O        -7.2760070481        3.3687953896       -0.5899659337
 C        -5.3999451421        1.9027222048       -1.0007384331
 C        -6.5328666264        0.7988698336       -0.7773262423
 O        -7.2307943664        0.3464459007       -1.6924092056
 C        -6.7637405182        0.4444710164        0.7038539976
 C        -7.8596465405       -0.5894446986        0.7856733371
 C        -9.1621235229        0.1358874665        0.4056272710
 O        -9.3100019914        1.3439967462        0.5321116477
 C       -10.2994600032       -0.6288429565       -0.3104795941
 C       -10.0797698515       -0.1732530537       -1.8426915873
 O       -10.1390735699        0.9595110546       -2.3117621133
 C        -9.8182140996       -1.2727571333       -2.8630939982
 C       -10.2710942584       -2.1454052120       -0.2095218967
 C       -11.6512768949       -0.0357948448        0.1184568618
 C        -5.0904529621        2.0796433707       -2.5103585561
 C        -4.1860349671        1.5360478814       -0.1804281464
 C        -4.6888981861        6.1166078881       -4.1912242895
 C        -5.1872608234        8.4319053464       -3.4023340224
 C       -10.9136228325        3.3019324636       -4.3611392301
 C       -11.4664483541        5.5291668423       -5.5725648948
 C       -13.4095725389        5.9721977859        1.8000075512
 C       -11.0249572381        5.2038322245        2.4767769734
 C       -16.1583850336        3.6998937380        6.3621928187
 C       -15.2032104465        6.1350883165        6.0457692557
 H       -14.3226436294        6.3998056899        8.5176543863
 H       -12.8762624372        6.2740929566        7.5801577203
 H       -12.9809985656        5.5197699644        9.1923339820
 H       -14.7111927756        2.6736665350        4.0706377235
 H       -13.7514544609        2.0508752274        5.2046681575
 H       -12.5480132894        1.7387012811        3.2463395702
 H       -11.6858250823        3.1503707791        4.0527073178
 H       -13.5746538301        5.4141381392       -0.6812370504
 H       -13.8910927898        3.8039589675       -0.3231115923
 H       -13.7988083552        3.7506075422       -2.6422356635
 H       -12.1503836078        3.1651436822       -2.2895998319
 H       -10.4836998173        7.4052326990       -3.2174874791
 H        -9.6499594680        7.2358786864       -4.8924742545
 H        -8.3982799896        7.3447649447       -2.1921474446
 H        -8.2817980069        8.6536391868       -3.3465901395
 H        -3.7344782585        5.7635149787       -0.9571793664
 H        -4.1634915263        4.6629962725       -2.1799583608
 H        -5.7330053954        5.1163951193        0.4010974507
 H        -4.3101044612        3.9379307595        0.5801261999
 H        -7.1838618546        1.3888133342        1.1269028531
 H        -5.8015504503        0.1415013872        1.1611798767
 H        -8.1000323109       -1.1143941442        1.7255885528
 H        -7.7675770840       -1.3380211265        0.0256351403
 H        -8.9571494006       -1.8569842889       -2.5628754784
 H        -9.7037143821       -0.8338565110       -3.8632270925
 H       -10.7637026346       -1.8300484850       -2.8913124948
 H       -10.0392045483       -2.4709235987        0.7586885641
 H        -9.4126473798       -2.5496882156       -0.8111356449
 H       -11.1362553042       -2.6253193026       -0.6110677008
 H       -12.1344485460       -0.7558593131        0.7919953354
 H       -12.2887739055        0.0169459953       -0.7581016250
 H       -11.5590124286        0.8252242713        0.6392949399
 H        -4.0331082696        1.7719963001       -2.7620308646
 H        -5.1697198120        3.0918812565       -2.8387368911
 H        -5.8896944598        1.4781806388       -3.0413689406
 H        -4.3448274623        1.6085037996        0.9251809105
 H        -3.4362139587        2.1870368107       -0.3874936400
 H        -3.7421864902        0.5898524183       -0.4892067161
 H        -4.7636562566        6.4396235476       -5.2265941229
 H        -4.8220484452        5.0583686547       -4.2612398710
 H        -3.6139966532        6.2312943003       -3.8985310818
 H        -5.7244883471        9.0127047458       -2.6579748651
 H        -5.4813657187        8.8818136368       -4.3361866837
 H        -4.1509723176        8.4621700714       -3.2852827212
 H       -10.3581012320        3.1426334473       -5.2445898557
 H       -11.8661399143        2.8506167884       -4.5173646084
 H       -10.4396461711        2.8900360172       -3.4371580483
 H       -10.6567102534        5.6011489650       -6.3006424346
 H       -11.8031584099        6.5596850392       -5.2209936651
 H       -12.2274313179        4.9248588061       -5.9822059511
 H       -13.4963232184        6.2905303238        2.8287428949
 H       -14.4061443995        5.6594057733        1.4557562228
 H       -13.0720855378        6.8067220804        1.1689861191
 H       -10.5145101008        4.3069533825        2.6786600817
 H       -11.2379482064        5.8057172959        3.3647977674
 H       -10.2864555526        5.7391107346        1.8636242717
 H       -16.7605036973        3.8880007207        5.4824349849
 H       -16.7851526890        3.8659291848        7.2197064204
 H       -15.9482538817        2.6689258109        6.4018229126
 H       -15.9605672465        6.4704675381        6.7366497703
 H       -15.6121651643        6.1618980918        5.0916023531
 H       -14.2791404925        6.7254147366        6.1453177006
 Na       -9.5527681301        3.0421097788       -1.2510908618
