117

 C        -0.8561715605        5.2068418189        3.6503671048
 C        -1.7047396809        5.9552923643        4.6569610016
 O        -1.5257563440        5.6135243708        5.8384900308
 C        -2.5219079748        7.1781238823        4.2604077107
 C        -3.8780764672        6.6122744030        3.6761370973
 O        -3.7427745557        6.1663334997        2.5214569513
 C        -5.2175081650        6.5986963924        4.4852650505
 C        -6.3109571710        5.7606176588        3.8124150661
 C        -7.7396548761        6.3938051840        4.0312602587
 O        -7.8905284724        7.6125559871        4.2344677007
 C        -8.9720764092        5.5441224664        4.1541962925
 C       -10.2073121583        6.3353237789        3.5199603108
 O       -11.3906349766        6.2573863213        3.8712984185
 C        -9.8825284101        7.1500977759        2.2268238240
 C       -11.2171952837        7.2154422315        1.5546809147
 C       -11.7916551038        5.8337457977        1.2484001805
 O       -10.9959138466        4.8623794249        1.0542658651
 C       -13.4223257796        5.7617455824        1.0423352868
 C       -13.7861639075        4.3920399834        0.3578713368
 O       -13.2083438976        4.2471490541       -0.7224006636
 C       -14.6278839270        3.3873741259        1.1961131213
 C       -14.8221015837        2.1005604921        0.4112524821
 C       -13.6439295966        1.1883307169        0.2636142820
 O       -12.5909563034        1.5743313587        0.6871846977
 C       -13.7590306990       -0.0122142876       -0.8279998920
 C       -13.1347973044        0.5542712427       -2.1443646945
 O       -12.4219671304        1.5059106976       -2.1558532542
 C       -13.5435078388       -0.4546213812       -3.3613577104
 C       -12.7109080655       -0.3293421550       -4.6257194809
 C       -12.4968930864        1.0322410641       -5.1698567029
 O       -13.0353334468        2.0587696749       -4.7865572458
 C       -11.4587874200        1.1980625702       -6.4545781641
 C       -10.1790314439        1.5256199564       -5.7330336294
 O        -9.6203166874        0.6331101961       -5.0981598729
 C        -9.7224042349        2.9731886619       -5.6226735309
 C        -8.6788628995        3.2996352702       -4.5490209667
 C        -9.1969630353        2.9502990544       -3.1352499238
 O       -10.1886018698        3.5041162568       -2.7065532150
 C        -8.3190860966        1.9718423638       -2.2489940403
 C        -9.2644213422        0.8793099670       -1.4485697600
 O        -9.7628907759        1.2545115930       -0.4231279848
 C        -9.4349882937       -0.5169679690       -2.0839437811
 C        -7.1444505862        1.3442999882       -3.0440605342
 C        -7.8406897643        2.9873577504       -1.2402853139
 C       -11.2436057229       -0.1838727932       -7.1458337520
 C       -11.9158117057        2.2932866491       -7.4246066610
 C       -12.8291983039       -1.1308521607       -0.2832645930
 C       -15.1914339707       -0.3812524908       -1.0557764658
 C       -14.2264830226        6.0535701932        2.4679179429
 C       -13.9671526856        6.8717289939        0.0826289594
 C        -8.9354164886        4.2755557673        3.3510507576
 C        -9.0924742007        5.2440269658        5.7162905968
 C        -2.6288466085        8.1482018087        5.4148487878
 C        -1.7292477917        7.8883338168        3.1331429108
 H        -1.1824134944        5.3274763201        2.5950474193
 H        -0.8024715603        4.1483042108        3.7757123631
 H         0.1713836159        5.5989758979        3.8256431184
 H        -5.4281570594        7.7194130716        4.6374872864
 H        -4.9437386467        6.2292386781        5.5034052543
 H        -6.4491488532        4.7656847391        4.2721079714
 H        -6.1606006151        5.6706212397        2.7069700963
 H        -9.1454571528        6.7263060876        1.6072263353
 H        -9.4600423854        8.1166195024        2.5194896767
 H       -11.2040115272        7.6724790965        0.5095840987
 H       -11.8865564481        7.9047278666        2.1072691820
 H       -15.5523192683        3.8749496244        1.4389364247
 H       -14.0041772815        3.3051369846        2.1705976264
 H       -15.1336045523        2.3880254403       -0.6467829437
 H       -15.7028241824        1.5819266013        0.7050356489
 H       -14.6527120033       -0.4163433617       -3.5495679095
 H       -13.2114150034       -1.3757719787       -2.7849974074
 H       -13.1541754705       -0.9921773061       -5.2957366962
 H       -11.7281296780       -0.6460041644       -4.4657828233
 H       -10.5834417918        3.6622624860       -5.4737622021
 H        -9.3188992515        3.1111113841       -6.6676810854
 H        -8.3694865423        4.3145600414       -4.5356381262
 H        -7.7544643594        2.7284413721       -4.7131001891
 H        -8.4667086687       -0.9189914428       -2.2513758075
 H        -9.8567257374       -0.5034161124       -3.1292151433
 H        -9.9613020045       -1.0584716200       -1.3586421033
 H        -6.4386266956        2.0611733494       -3.5655502957
 H        -7.5148603180        0.7152905106       -3.8614613536
 H        -6.6383646632        0.6617432667       -2.3910758393
 H        -8.4674918890        3.1288081886       -0.4380411283
 H        -7.6281752272        3.9465128618       -1.7205988511
 H        -6.9816309589        2.6344328938       -0.8029910955
 H       -12.2273361992       -0.4229997718       -7.6891388702
 H       -10.9868883464       -1.0167526726       -6.5270984142
 H       -10.5064396760       -0.0886223811       -7.9974902971
 H       -12.0155278703        3.1673059413       -6.8662902007
 H       -12.8868923644        1.9587130081       -7.8221923951
 H       -11.2515869449        2.4285864045       -8.2565203666
 H       -13.0704870649       -1.2292997534        0.7911699206
 H       -11.8128714678       -0.7258420843       -0.3257701421
 H       -12.8633990691       -2.0855013403       -0.8088296481
 H       -15.7299523792       -0.7024778273       -0.0602423278
 H       -15.3072346055       -1.2339871431       -1.7861533527
 H       -15.7477035122        0.4496359309       -1.4342332637
 H       -15.2439994831        5.7015336537        2.3925275457
 H       -14.3629854865        7.2126903945        2.4725948293
 H       -13.7003306968        5.8258997901        3.3299535698
 H       -13.5858045192        6.7667670022       -0.8988894947
 H       -13.6111577571        7.8304487876        0.3927785607
 H       -15.0650741932        6.8608610526        0.0886757337
 H        -8.2720369412        3.5132698208        3.7202630872
 H        -8.4803236823        4.5654150084        2.3964422527
 H        -9.9240279081        3.9131696722        3.1688172932
 H        -8.8859661057        6.0707261802        6.3718698920
 H        -8.3963738583        4.4286379073        5.9614074042
 H       -10.0645637249        4.8947096289        5.9876397241
 H        -3.2930214956        7.7547383809        6.1371673948
 H        -3.0389861591        9.0912589001        5.1727462560
 H        -1.6688746069        8.1820115168        5.9967961442
 H        -2.1472930998        7.5006669280        2.1694802985
 H        -0.6516749509        7.6554495532        3.2216744788
 H        -1.8101075602        9.0481145914        3.1738609578
 Na      -11.1798501509        3.1596799191       -0.6100410589
