117

 C       -13.4087805296        5.8530527382        8.3029414798
 C       -14.1350626109        4.5704976300        7.7756876021
 O       -14.1353139501        3.4809152479        8.2586571532
 C       -14.8726710296        4.6849282289        6.2850237178
 C       -13.8244941997        4.3482898113        5.2098920235
 O       -13.0149425903        5.2100239056        4.8687597963
 C       -13.7715750071        2.8728239196        4.5813534358
 C       -12.6672519543        2.7953264852        3.5466464456
 C       -13.0423597092        3.4389204870        2.2359612112
 O       -13.8946958375        2.9723331229        1.5277049497
 C       -12.3828731036        4.8014813589        1.7328437390
 C       -12.0083084530        4.4831808752        0.2597667584
 O       -10.8347448344        4.3523617865       -0.0077920621
 C       -13.1800279911        4.3839738136       -0.8788692604
 C       -12.7095042878        3.9509185795       -2.2284457024
 C       -12.1434222727        5.1023055097       -3.1051284682
 O       -12.4772483107        6.2628292546       -2.9519423646
 C       -11.0446587510        4.8162336436       -4.2040549489
 C        -9.6900814359        5.4132685897       -3.6322280759
 O        -8.8979425713        4.7293641717       -3.0367252440
 C        -9.5749190602        6.9073712510       -3.7345027304
 C        -8.2087045587        7.5771407805       -3.3017239453
 C        -7.0740280557        6.7862549037       -3.9709292085
 O        -7.2498825090        6.2573171939       -5.0534660200
 C        -5.6263481442        6.8446712741       -3.3515551464
 C        -5.6409378728        6.2575905273       -1.8801436092
 O        -6.3866557197        6.7548178080       -1.0638824604
 C        -4.6594973413        5.1890493112       -1.3145037670
 C        -5.2791379951        4.4214940853       -0.1001665197
 C        -6.1205883482        3.2295091314       -0.5281098395
 O        -7.3593225875        3.3110870085       -0.5479675403
 C        -5.4296974860        1.8961645867       -0.9819733387
 C        -6.5466802840        0.8073334259       -0.7764310579
 O        -7.1758629309        0.4393774171       -1.7284841283
 C        -6.7978718750        0.4225163948        0.6682262953
 C        -7.9458157592       -0.5319171773        0.9515080353
 C        -9.1694745575        0.0989935513        0.3142659692
 O        -9.2618745895        1.3238927278        0.4290505673
 C       -10.3440598596       -0.6563810322       -0.4318451366
 C       -10.1737673365       -0.1349988458       -1.8784132741
 O       -10.3624229388        1.0332878356       -2.1084549247
 C        -9.8512195025       -1.2307504009       -2.9598139731
 C       -10.2101160592       -2.1795982247       -0.2455262930
 C       -11.5969159707        0.0228434448        0.2759648492
 C        -5.0186666973        1.9861975579       -2.4662253890
 C        -4.1714183397        1.5163048444       -0.0958430396
 C        -4.6723090854        6.1205254331       -4.3346981626
 C        -5.2806446530        8.3630859596       -3.3047269877
 C       -10.8725010291        3.3148611263       -4.5128018728
 C       -11.5044037781        5.4366794650       -5.4913725682
 C       -13.3206946131        6.0430803431        1.8410301143
 C       -11.1001215524        5.2339099980        2.5531260146
 C       -16.0994483159        3.7773629872        6.3641382371
 C       -15.3629770811        6.0840647618        5.9998457041
 H       -14.0535020107        6.6930372452        8.4003150773
 H       -12.6662381245        6.0717665467        7.6112089205
 H       -12.9493942786        5.6410903634        9.2820338840
 H       -14.7834509661        2.6279835757        4.2142296523
 H       -13.6161899838        2.1401980682        5.3588290071
 H       -12.5143745782        1.7488345847        3.3123990648
 H       -11.8068963067        3.3053505520        4.0196601776
 H       -13.5642520164        5.3624177238       -0.8260336787
 H       -13.9792029868        3.7924578979       -0.4665015774
 H       -13.6785531006        3.6347429387       -2.7056332514
 H       -12.0828854121        3.0568434748       -2.2453489515
 H       -10.4202913332        7.2011807892       -3.1006120086
 H        -9.6822755714        7.1570975050       -4.7766933002
 H        -8.0862210498        7.4904335988       -2.2343300471
 H        -8.1401227294        8.6008056835       -3.6235191123
 H        -3.7262745811        5.6456893481       -1.0029690473
 H        -4.2890767745        4.5113287575       -2.1419479979
 H        -5.9349658452        5.2223275574        0.3760025949
 H        -4.4550477590        4.0449881895        0.5021031689
 H        -6.9472876981        1.3136830156        1.2445000488
 H        -5.8575836456       -0.0469465261        0.9363690169
 H        -8.1830693439       -0.6650962090        2.0488310574
 H        -7.8452810152       -1.5309638014        0.5148201150
 H        -8.8235628786       -1.4726737937       -2.7271183611
 H        -9.9142853505       -0.8607162766       -3.9000277310
 H       -10.5520106085       -2.0954864528       -2.8550421724
 H       -10.0940365650       -2.4401184676        0.7757020160
 H        -9.3848468923       -2.6088509739       -0.7929713171
 H       -11.0814023577       -2.7069424670       -0.6672592642
 H       -11.9410896678       -0.6571038117        1.0904241795
 H       -12.3482042260        0.0722970582       -0.4628844085
 H       -11.3987993927        0.9935961178        0.7340686575
 H        -3.9638814540        1.8621179933       -2.4409777933
 H        -5.1499869384        3.0271685243       -2.9097687305
 H        -5.5362449722        1.2146607983       -3.1336164877
 H        -4.2851140489        1.6234160820        0.9283264545
 H        -3.2906971942        2.0670955868       -0.3959098811
 H        -3.7676151154        0.4768016528       -0.3661030639
 H        -4.9590683164        6.2778850406       -5.4060595702
 H        -4.6208336788        5.0424781205       -4.2742822498
 H        -3.6234544419        6.3915399012       -4.2128006050
 H        -5.8426169341        8.8241732671       -2.5660246518
 H        -5.5796333000        8.8267734079       -4.2208025316
 H        -4.2365335407        8.4880751871       -3.2096163634
 H       -10.5331733830        3.2125874015       -5.5080722291
 H       -11.9422815748        2.9451348014       -4.5997414895
 H       -10.3553369124        2.7915044552       -3.7523003901
 H       -10.6171575526        5.3895655070       -6.1220744326
 H       -11.7822605121        6.4034056123       -5.2959994111
 H       -12.2429764923        4.8017700235       -5.9927596417
 H       -13.4172268061        6.3410833229        2.9344538067
 H       -14.3180012089        5.8609745408        1.4129464798
 H       -12.8688757406        6.8622583844        1.3067285896
 H       -10.4368041596        4.3779282017        2.5456391868
 H       -11.2833337978        5.6620585596        3.5265667879
 H       -10.5241999660        6.0057737420        1.9746487444
 H       -16.5018420599        3.6078879820        5.3643977460
 H       -16.8849544550        4.1917830358        6.9792184487
 H       -15.9211608573        2.7848101944        6.8356702191
 H       -16.2523996067        6.3057160922        6.6105040906
 H       -15.6496052517        6.2200357683        4.9522329697
 H       -14.5312443394        6.6907641156        6.3244022724
 Na       -9.5395643863        3.1096217260       -1.3785755628
