117

 C       -13.3261930338        5.8837925152        8.2425161676
 C       -14.2091393276        4.7262941399        7.7361482539
 O       -14.1993645188        3.5911849700        8.1381556834
 C       -14.9553932011        4.8243060867        6.2629765074
 C       -13.7650271239        4.5436690822        5.2950051100
 O       -12.8943212194        5.3757481136        5.1597058442
 C       -13.7337812259        3.1081688956        4.7317815506
 C       -12.7013611047        2.8758357512        3.6178076729
 C       -13.0997876258        3.5168342763        2.2524303046
 O       -13.9886002150        2.9468303306        1.6387618671
 C       -12.4006233829        4.8236474636        1.7055580158
 C       -11.9539333359        4.5765485639        0.2070024801
 O       -10.7756753563        4.5007110605       -0.1312121624
 C       -13.0666917467        4.4206636895       -0.8548595488
 C       -12.4995900669        3.8082630634       -2.1264045494
 C       -12.0481942974        4.9267031451       -3.0454931646
 O       -12.4527393828        6.0383390584       -2.9201643989
 C       -11.0065652718        4.7049526077       -4.2551888304
 C        -9.8028115126        5.3310421148       -3.6538421937
 O        -9.0664211285        4.7490782098       -2.8112594090
 C        -9.5767476483        6.8168287271       -3.8654963496
 C        -8.2227541090        7.2078089150       -3.2859819900
 C        -7.0116181231        6.6135845835       -4.1317183032
 O        -7.1133748569        5.9427073125       -5.1112826791
 C        -5.5704456266        6.8074882227       -3.4697496558
 C        -5.6344060332        6.3148014306       -1.9562214749
 O        -6.2939105826        6.9213040142       -1.1353751076
 C        -4.7016363405        5.1965493944       -1.4876931226
 C        -5.2403467225        4.4724606196       -0.1879636703
 C        -6.1114496514        3.2218296815       -0.5947334026
 O        -7.2869549246        3.3727893056       -0.5321480335
 C        -5.4186535576        1.8543679825       -0.9493119893
 C        -6.4807905647        0.7295737782       -0.6463149154
 O        -7.2530613726        0.3109728656       -1.5245854262
 C        -6.5742037958        0.1278374998        0.7511991426
 C        -7.9749965115       -0.4659180944        0.9438500940
 C        -9.1798741993        0.2964447919        0.3148898668
 O        -9.1764550069        1.4842389144        0.2118371583
 C       -10.3958227237       -0.5868938447       -0.3345300438
 C       -10.4037141376       -0.0337927056       -1.9004050182
 O       -10.9083792895        1.0922960406       -2.1220324755
 C        -9.9670890901       -0.9182963863       -3.0745388097
 C       -10.2058611644       -2.1233496991       -0.1874234658
 C       -11.7415922238       -0.2630660715        0.2947838080
 C        -4.9747790730        1.7809697416       -2.4428124820
 C        -4.2306890902        1.7371648824       -0.0228656310
 C        -4.4998132777        6.1137153349       -4.2278252949
 C        -5.1869967408        8.3588378155       -3.2538173427
 C       -10.7774300538        3.2635092040       -4.6171732663
 C       -11.5120217249        5.5384071880       -5.4631291198
 C       -13.5041501079        5.9605427502        1.8599623915
 C       -11.0483836989        5.0953398351        2.4882925751
 C       -16.1003857311        3.7274070148        6.1976481320
 C       -15.5537246419        6.2375632636        6.0302156126
 H       -13.8718635165        6.8647743521        8.2565728788
 H       -12.4361993919        5.9354902978        7.5512271650
 H       -12.9417661949        5.6200904196        9.2287561679
 H       -14.7411559642        2.7001545533        4.4855679713
 H       -13.5236128291        2.6044570776        5.7377700573
 H       -12.6893162930        1.7914692286        3.3850578979
 H       -11.7612261650        3.2408180717        3.9910221465
 H       -13.4573006593        5.4656815364       -0.9034130955
 H       -13.8144909885        3.9060361635       -0.2414554705
 H       -13.1997671295        3.2112877164       -2.6538923696
 H       -11.6684610884        3.1606250874       -1.9024399757
 H       -10.3328471149        7.2958683279       -3.2322947799
 H        -9.5378849179        7.1661332368       -4.9206549298
 H        -8.0789678221        6.8597413547       -2.2323771745
 H        -8.1868178117        8.3305386892       -3.3644893215
 H        -3.7508655237        5.7123331404       -1.3094820611
 H        -4.4550944930        4.4599954604       -2.2075675250
 H        -5.9984784692        5.0956107849        0.2218981742
 H        -4.3008986483        4.2081341162        0.3911070447
 H        -6.2630307034        0.8206046287        1.5752486458
 H        -5.8687450477       -0.7228381685        0.8015789073
 H        -8.1263183404       -0.6647868549        1.9965818901
 H        -8.0323462311       -1.4571847503        0.4864380196
 H        -8.9365243675       -0.6952128697       -3.3584590260
 H       -10.6281019220       -0.5941597523       -3.9424676746
 H       -10.1848375630       -1.9260722855       -2.7895327707
 H       -10.4286959485       -2.4615783211        0.8516821238
 H        -9.2862683400       -2.5706790360       -0.6456248771
 H       -10.9664381469       -2.5998755059       -0.7970600951
 H       -11.6774198757       -0.1062266386        1.3850293867
 H       -12.4325501307       -1.1249347973       -0.0276577003
 H       -12.1176866591        0.6546032644       -0.1521615977
 H        -4.1786550947        2.5012212933       -2.7470549162
 H        -5.8234834931        1.9805057988       -2.9716711099
 H        -4.6287705290        0.7955778986       -2.6332452758
 H        -4.4570080309        1.9008834462        1.1281653221
 H        -3.4749817241        2.4133407424       -0.3606441434
 H        -3.6768235989        0.8331248937       -0.0639474563
 H        -4.4972677127        6.3690532814       -5.2505707780
 H        -4.5614584921        5.0239719153       -4.2757637572
 H        -3.5030820367        6.2539611692       -3.7983863539
 H        -6.0117101276        8.9004571974       -2.6794845421
 H        -4.9663755209        8.8516127838       -4.2196356213
 H        -4.2131716594        8.3680655755       -2.7368873106
 H       -10.1572752501        3.3289526332       -5.5355508482
 H       -11.6090404201        2.7060912540       -4.9161010314
 H       -10.1889977854        2.8856571062       -3.7298619758
 H       -10.7826369436        5.5361566376       -6.2615875742
 H       -11.7861626282        6.5574674617       -4.9826494440
 H       -12.3777994619        5.0640300645       -5.8462006824
 H       -13.8228674390        6.0982854449        2.8505392069
 H       -14.3215659421        5.6939386313        1.1877872938
 H       -13.1000223525        6.9510741486        1.5379696958
 H       -10.2763170008        4.3942767425        2.1087928291
 H       -11.2217641415        5.0740473823        3.6027293125
 H       -10.7243894447        6.1299346040        2.3991134203
 H       -16.4493438954        3.4379771584        5.1784044136
 H       -16.9556170328        4.0299224244        6.8477385543
 H       -15.7977465545        2.8165804977        6.7102244000
 H       -16.1294635628        6.5431855948        6.9049970122
 H       -16.2865848150        6.1103783946        5.2407299306
 H       -14.7297102410        6.9591142229        5.8061623657
 Na       -9.4335585118        3.0032040887       -1.4605479895
