117

 C       -13.4835583029        5.9774670856        8.2488708674
 C       -14.2829868626        4.8108166638        7.6548122379
 O       -14.3172204677        3.7749404021        8.2811966938
 C       -14.9833184571        4.9346358569        6.3110223060
 C       -13.8694611332        4.5942128338        5.2913092427
 O       -13.0208066431        5.4146619771        4.9822479828
 C       -13.7782057872        3.1859315393        4.7531673222
 C       -12.5559773139        3.0842233829        3.7720072957
 C       -12.9632573442        3.6145683466        2.3918149178
 O       -13.8792301530        2.9856848189        1.8669204636
 C       -12.3151260438        4.8793170077        1.6781496906
 C       -11.9293775062        4.4370955553        0.2263130442
 O       -10.7432544828        4.2689824073       -0.0396227797
 C       -13.0068137078        4.0676878072       -0.7750822977
 C       -12.6340944470        3.7560324661       -2.2243158840
 C       -12.1638524850        4.9964930159       -3.1085544670
 O       -12.6255453018        6.1078923090       -2.9624977920
 C       -11.1358380237        4.7032885222       -4.2870085270
 C        -9.7912319253        5.2605159613       -3.7292790400
 O        -9.1881903578        4.6454566639       -2.8890135952
 C        -9.3367079291        6.6941074014       -4.2793493007
 C        -8.0160462347        7.2541867176       -3.5552793549
 C        -6.7839971276        6.5404855744       -4.0192531801
 O        -6.8153220630        5.6326955760       -4.7906732889
 C        -5.3188461530        6.9340344536       -3.4472456953
 C        -5.3751740359        6.3706030449       -1.9686002956
 O        -6.1272022483        6.9684304117       -1.2180282079
 C        -4.5474308808        5.1304935332       -1.5372771228
 C        -5.0677519622        4.4601034249       -0.2500150955
 C        -6.0058620116        3.2243037744       -0.6282979496
 O        -7.1670337919        3.4187887132       -0.9199150058
 C        -5.3813136174        1.7844170763       -0.8029266619
 C        -6.5958318670        0.7939160807       -0.5005580217
 O        -7.3378666968        0.3014622559       -1.3333234542
 C        -6.8423470877        0.3312331906        0.9956086410
 C        -7.9786159506       -0.6752481988        1.0017010593
 C        -9.2035139130        0.1187243446        0.3734902299
 O        -9.2601510169        1.3292360309        0.4839715558
 C       -10.3448623928       -0.5930079722       -0.4064251075
 C       -10.5634833296       -0.0265402338       -1.8849381084
 O       -11.2188271143        0.9961042414       -2.0166672709
 C       -10.0775832597       -0.7136307297       -3.2138194954
 C       -10.3063269218       -2.1161193459       -0.4851021824
 C       -11.5697673491       -0.2380072161        0.5329673099
 C        -5.0286787835        1.6723077959       -2.3469547807
 C        -4.1798107213        1.4674401814        0.0829448170
 C        -4.3058383511        6.2105558786       -4.3048154542
 C        -5.2040721173        8.4706149042       -3.5668047861
 C       -10.9054750643        3.2375572287       -4.6169214846
 C       -11.6901693512        5.3730832996       -5.5823775533
 C       -13.4630414978        5.9753647216        1.6317446648
 C       -11.0712470651        5.3737562030        2.4131613837
 C       -16.1805178840        4.0057936756        6.2188152672
 C       -15.4450081998        6.4103049623        6.1168600402
 H       -14.1064484643        6.6723392759        8.7279114967
 H       -12.8767677065        6.4192477956        7.4224727317
 H       -12.7684399544        5.6113502447        8.8885649828
 H       -14.6907659200        2.9732416078        4.2100389892
 H       -13.6659499847        2.4914539426        5.6666206474
 H       -12.3157970698        1.9985905323        3.7369718738
 H       -11.7279865659        3.6113293687        4.2312269103
 H       -13.7481059259        4.8779670277       -0.7075042493
 H       -13.4352519965        3.3023975119       -0.1892994580
 H       -13.5457420135        3.3774172442       -2.6856826206
 H       -11.8768288246        2.9641602950       -2.3125052165
 H       -10.1320054137        7.4481343213       -4.0108851669
 H        -9.2283886390        6.5663467346       -5.3314753872
 H        -8.1238115691        7.1680131921       -2.4801211852
 H        -7.8736249952        8.2705875505       -3.8345933274
 H        -3.4578095951        5.4142367303       -1.4598303429
 H        -4.6100260404        4.3979011858       -2.3061185146
 H        -5.7862404800        5.2106352709        0.1806876871
 H        -4.1972033426        4.0880951536        0.2165132518
 H        -7.0057252471        1.1900217723        1.6156523880
 H        -5.9852323596       -0.1177098287        1.4636948727
 H        -8.1351400150       -1.0318273822        2.0281059563
 H        -7.7385838826       -1.6396574833        0.4689460624
 H        -9.0920954952       -0.3966702869       -3.4352649119
 H       -10.7422938698       -0.2672766412       -4.0010411528
 H       -10.1815161263       -1.7336368929       -3.1367558251
 H       -10.3818084024       -2.5628267233        0.5215812172
 H        -9.4210666208       -2.4139376982       -0.9693845062
 H       -11.1134872083       -2.5783121776       -0.9924665983
 H       -11.0974557695        0.3199983625        1.2570493418
 H       -12.0782155932       -1.0872188576        1.0314009803
 H       -12.3051035823        0.3450470490       -0.0261334788
 H        -5.6160582025        2.4876078525       -2.9406162065
 H        -5.4125907518        0.7173056521       -2.7257779944
 H        -3.9730022792        1.8736975937       -2.5562943943
 H        -4.3479094211        1.5380552530        1.2256911800
 H        -3.1957074164        1.9396347722       -0.1489967536
 H        -4.0148545047        0.4543081043        0.0658044252
 H        -4.1419607700        6.7460805719       -5.2250218259
 H        -4.5399779864        5.1602689918       -4.6320096524
 H        -3.3150481408        6.1148007944       -3.8877643072
 H        -5.8447524063        8.9542617708       -2.8537326578
 H        -5.4586300690        8.6643555027       -4.5584588616
 H        -4.2130357202        8.8443870008       -3.4097638327
 H       -10.1498642274        3.0411885537       -5.4186626910
 H       -11.8701239838        2.8985361693       -4.8803336904
 H       -10.5242108122        2.8053567469       -3.7001619449
 H       -10.9040056849        5.3318926530       -6.2738490373
 H       -12.1012168064        6.3722652266       -5.3199650444
 H       -12.5118958634        4.8091364305       -5.9630841126
 H       -13.6336446290        6.3377908143        2.6249919486
 H       -14.3626015177        5.5060769808        1.2310198060
 H       -13.2434683103        6.8873672473        1.0378977932
 H       -10.3592029684        4.5916882194        2.7411948495
 H       -11.3473502461        5.9333116120        3.3072537328
 H       -10.6398829566        6.1357727555        1.8355327762
 H       -16.7160214161        4.2390067144        5.3229227542
 H       -16.8537301319        4.1236478561        7.0591301058
 H       -15.9079667923        2.9727470744        6.1292588254
 H       -16.1707558202        6.5529876727        6.8855973065
 H       -15.9829894228        6.4259838892        5.1476941521
 H       -14.6598214254        7.1367140544        6.1053259837
 Na       -9.5434636151        2.9357815583       -1.3079144044
