117

 C       -13.5523171975        6.0985194467        8.3829600513
 C       -14.3899253934        4.9070673538        7.7832157186
 O       -14.5001090742        3.8516361051        8.3189571417
 C       -15.0029947334        5.2287871732        6.3723461473
 C       -13.9960619253        4.9516090014        5.1916609996
 O       -13.5338512047        5.8623215552        4.5701819108
 C       -13.4294234601        3.4993332104        4.9934388127
 C       -12.4326334510        3.3147966104        3.7720922102
 C       -12.9300114088        3.7131250494        2.3674063074
 O       -13.8319026902        3.0745624347        1.8634455150
 C       -12.3988094229        4.9440350489        1.6715090163
 C       -12.0854073369        4.3819968148        0.2369564346
 O       -10.9705194783        3.9332439838       -0.0049385997
 C       -13.1511547009        4.4410490206       -0.8490971219
 C       -12.7268970433        3.8376244107       -2.1812401709
 C       -12.2289419673        5.0100044732       -3.0335025873
 O       -12.5338806908        6.1461482077       -2.8304107553
 C       -11.2644801650        4.7012846682       -4.2908651196
 C        -9.8674619140        5.1539144765       -3.7882078423
 O        -9.1963245512        4.5885287839       -2.9108929989
 C        -9.1517497861        6.2886948373       -4.5600653192
 C        -7.9279845428        6.9247393007       -3.7995120862
 C        -6.5631403878        6.1808365988       -4.0413594300
 O        -6.5003073061        5.1487121537       -4.6528669403
 C        -5.2517392034        6.8692818162       -3.4881038642
 C        -5.1855336271        6.3038333185       -2.0559163680
 O        -5.7426152605        6.8133386818       -1.1184592588
 C        -4.3988488343        4.9417889353       -1.7561499730
 C        -4.9034923226        4.3493835897       -0.4576676072
 C        -5.8715412429        3.2349929527       -0.7964120895
 O        -7.0128468676        3.5826182873       -1.0158541937
 C        -5.4371751390        1.7410476521       -0.8330234822
 C        -6.6768972761        0.7899770320       -0.6297052189
 O        -7.6105214030        0.6396716244       -1.4385205059
 C        -6.8308549323        0.1765871547        0.7836494849
 C        -8.1371539122       -0.5448397861        1.0878419409
 C        -9.4005254245        0.1635725496        0.5120869046
 O        -9.5507896369        1.3525086560        0.6693710015
 C       -10.5198989027       -0.8182480463       -0.3377628658
 C       -10.4801566362       -0.1192589789       -1.7167651600
 O       -10.8120371022        1.0903530169       -1.8292047722
 C        -9.8511227977       -0.8460409010       -2.9039150827
 C       -10.1659737457       -2.3326598949       -0.2581531075
 C       -11.9247747613       -0.7491066752        0.4026476993
 C        -4.9221476345        1.3601657738       -2.2949580704
 C        -4.3218412987        1.5680190309        0.1973014368
 C        -4.0736202736        6.4243804609       -4.3928725922
 C        -5.4694301712        8.4985698259       -3.5912325191
 C       -11.1578523492        3.1843125387       -4.6028413233
 C       -11.8492663973        5.5077955922       -5.4393083032
 C       -13.5591514541        5.9656728862        1.6358561484
 C       -11.1333102739        5.5328139624        2.3202380648
 C       -16.1822500442        4.2452369069        6.1417317900
 C       -15.4968919827        6.6486563849        6.3879540174
 H       -14.1959364753        6.8018582261        8.9000275847
 H       -12.9871091657        6.5499409551        7.5781491024
 H       -12.7670376974        5.7637916066        9.0515344044
 H       -14.1963150124        2.7982331804        5.0456960952
 H       -12.7909002263        3.4880798570        5.8695539939
 H       -12.0377263990        2.2835552647        3.8365519271
 H       -11.5981901058        3.8910917452        4.1064810081
 H       -13.2493521956        5.5649407581       -0.8744946805
 H       -14.0785135323        4.0334141684       -0.5629093868
 H       -13.6345685704        3.3044220767       -2.5899198028
 H       -11.8999001153        3.0825280925       -2.0891488805
 H       -10.0177134784        7.0282616796       -4.6173586427
 H        -8.9265034339        6.0504187422       -5.5834966220
 H        -8.0516838830        6.9967964554       -2.7273679613
 H        -7.8024892296        7.8956543966       -4.2193124008
 H        -3.2996304679        5.2450835249       -1.6077748528
 H        -4.4693782261        4.2126881223       -2.5455376943
 H        -5.4992573627        5.2236305722       -0.0624639313
 H        -4.0156271789        4.0138707175        0.1214608794
 H        -6.6279753144        0.9499455388        1.5353185508
 H        -5.9177901547       -0.4029502496        0.9036349182
 H        -8.3206893580       -0.6711069968        2.1730719803
 H        -8.1451646450       -1.5692708849        0.6113473437
 H        -9.0761868187       -1.4382810623       -2.4658570203
 H        -9.4565123737       -0.0706287275       -3.5636675473
 H       -10.5983806634       -1.4721390699       -3.3828047260
 H       -10.3759724280       -2.6891141356        0.7792318007
 H        -9.1883898912       -2.7821570251       -0.5234572424
 H       -10.9482516815       -2.8317184818       -0.8023852857
 H       -11.8099989684       -1.1251312333        1.3892419827
 H       -12.5758167992       -1.4856864441       -0.1083430837
 H       -12.3548417553        0.1970780801        0.3719393487
 H        -5.3041640874        0.3510807620       -2.6400070132
 H        -3.8714508960        1.3831657149       -2.3959594513
 H        -5.4043539629        2.1167787151       -2.9487372576
 H        -4.4547425544        2.0002392368        1.2569121841
 H        -3.4115121504        2.0069588675       -0.0619042378
 H        -4.0187957609        0.5425781868        0.3424137986
 H        -3.9281896585        6.9606916685       -5.2824530343
 H        -4.1132965465        5.3544254631       -4.6391080403
 H        -3.1157768867        6.5391717634       -3.9121457253
 H        -6.4904816246        8.6870662200       -3.1534945095
 H        -5.4557958216        8.7515122180       -4.6544509567
 H        -4.7762285005        9.0735924946       -2.9690619007
 H       -10.4356764482        3.0139390156       -5.4069201509
 H       -12.1248322622        2.9632757773       -4.8076373132
 H       -10.7771092413        2.6059590328       -3.7588146736
 H       -11.0629943421        5.5802112371       -6.1720965653
 H       -12.0922708692        6.5747128663       -5.0293822037
 H       -12.7614885192        5.0372568060       -5.7522915479
 H       -13.8367837689        6.2976663332        2.5812626748
 H       -14.4296931675        5.4612623705        1.2422109112
 H       -13.3544679839        6.8068891232        0.9550850244
 H       -10.3468371718        4.7780944810        2.4434985052
 H       -11.2097905048        5.8936989162        3.3452717952
 H       -10.7619533338        6.2658088316        1.6584689220
 H       -16.2500909014        3.9451676536        5.1149875174
 H       -17.1527285962        4.6432544624        6.3882132915
 H       -15.9729119737        3.3555699837        6.6731857826
 H       -15.9285665941        6.8369349413        7.3368923939
 H       -16.1899288891        6.7944007392        5.5731870630
 H       -14.6563431664        7.3079129723        6.2136426673
 Na       -9.1916523116        2.8089416865       -1.4789243545
