117

 C       -13.4794673568        6.0300836143        8.3898986018
 C       -14.3801740274        4.9637868761        7.7408546613
 O       -14.4547020437        3.8230524388        8.1698291702
 C       -15.0632202813        5.2969255693        6.3828854454
 C       -13.9906037354        5.1743536325        5.2748207470
 O       -13.5011763526        6.1209411763        4.6699801760
 C       -13.4730460189        3.6939434413        5.0941523353
 C       -12.4538480509        3.5276306212        3.9730606540
 C       -12.9633324657        3.7287664953        2.5870054632
 O       -13.9430717289        3.0849491201        2.2251334660
 C       -12.4803926257        4.9515932366        1.6570127777
 C       -12.0649531879        4.4248949568        0.2656421679
 O       -10.9521631897        3.9985969037        0.0002700378
 C       -13.1996517483        4.3448575771       -0.8002461276
 C       -12.7588966302        3.9164737717       -2.2145366475
 C       -12.1347946168        5.0446669665       -3.0633586216
 O       -12.3323238722        6.2252877524       -2.7885309984
 C       -11.2746394325        4.6125882635       -4.3815683067
 C        -9.8142836653        5.0300149775       -3.9552843692
 O        -9.3504243077        4.5211086485       -2.9809255183
 C        -9.0580775396        6.1598471213       -4.6790032707
 C        -7.9390926705        6.7298727579       -3.8847269220
 C        -6.5587375061        6.1326467479       -4.0944201852
 O        -6.4797835544        5.0232680670       -4.5519754531
 C        -5.2260813290        6.8828206981       -3.5993004404
 C        -5.2192430614        6.2948180260       -2.1063976895
 O        -5.7319678772        6.9568020207       -1.2340518878
 C        -4.4031420156        5.0570979031       -1.9941981004
 C        -4.6781850889        4.2105406715       -0.6921016218
 C        -5.8399674609        3.2227934072       -0.8136613176
 O        -6.9647306289        3.6184622120       -1.0154325798
 C        -5.4838720225        1.6911928646       -0.7863606325
 C        -6.7909817905        0.8637052022       -0.5149031968
 O        -7.6828430189        0.9099165716       -1.3071222591
 C        -6.9306131518        0.1701681880        0.8952133796
 C        -8.1566188892       -0.6517453055        1.1834106036
 C        -9.4503534407        0.0006938795        0.6556029545
 O        -9.7282958773        1.1460074941        0.9320688765
 C       -10.4030287663       -0.8350254021       -0.2874727462
 C       -10.3095502086       -0.2389386238       -1.7014886280
 O       -10.7987965261        0.8375144164       -1.9368615487
 C        -9.8595236851       -1.1044811867       -2.8881218790
 C       -10.0576943081       -2.3143539449       -0.3147834671
 C       -11.8524976411       -0.3715382618        0.1828971505
 C        -4.9554909514        1.4975404807       -2.2279084713
 C        -4.3328921663        1.2255694220        0.1158517376
 C        -3.9926635681        6.4764299770       -4.4105459380
 C        -5.2284239022        8.4578335144       -3.3767760420
 C       -11.2873268691        3.1347467673       -4.7409716792
 C       -11.7929633943        5.4243087624       -5.5653185065
 C       -13.5430514972        6.0952201849        1.5178836179
 C       -11.1937161832        5.6549491837        2.2113621450
 C       -16.1798990488        4.3202031345        6.0829178325
 C       -15.6789166622        6.7126108783        6.2937685535
 H       -14.0824415726        6.8852741493        8.5806301737
 H       -12.6969073424        6.2931615311        7.6251169386
 H       -12.9871056089        5.7309905506        9.2734227520
 H       -14.3490285712        3.0253130086        4.7811463851
 H       -13.0731529261        3.4995011335        6.1288431793
 H       -12.0619458741        2.5262315265        4.0665926701
 H       -11.5533200238        4.1321653320        4.2129213772
 H       -13.6926718987        5.2928678190       -0.8666518407
 H       -13.8934534865        3.5818495088       -0.3348855302
 H       -13.6556196344        3.7319928599       -2.7750353956
 H       -12.1721133237        3.0364875490       -2.2630527033
 H        -9.7367511855        6.8109467533       -5.1808306947
 H        -8.6346003286        5.5822910525       -5.5452313118
 H        -8.1267079218        6.6360479807       -2.8070118663
 H        -7.7980277318        7.8041650062       -4.1183980535
 H        -3.4180837952        5.4244861791       -2.0806161151
 H        -4.5649303626        4.3773644670       -2.8586426863
 H        -4.9970368348        4.8916116270        0.1467817692
 H        -3.7464875237        3.7066614765       -0.4749258341
 H        -6.8678610116        0.9784076126        1.6159409969
 H        -6.0433946162       -0.4022405583        1.1422873808
 H        -8.1967338224       -0.7411648454        2.2787962315
 H        -8.0342483950       -1.6172814430        0.7245837531
 H        -9.1172709202       -1.8393468675       -2.6394897590
 H        -9.6111346104       -0.3959527103       -3.6976205968
 H       -10.7733661363       -1.5849488281       -3.1436452280
 H        -9.8793372893       -2.7326440643        0.6505728493
 H        -9.0709787908       -2.3662948921       -0.6863365640
 H       -10.6947431654       -2.9511914317       -0.9461826268
 H       -12.1837340398       -1.0849917935        0.9568143207
 H       -12.5789629494       -0.3613298800       -0.6048108320
 H       -11.6796171862        0.6038860710        0.7718001932
 H        -4.2466994080        0.6694613244       -2.1633466713
 H        -4.4005478267        2.4176292678       -2.6195153393
 H        -5.7498738155        1.2175788948       -2.8984371685
 H        -4.5094021046        1.4534759666        1.1320940590
 H        -3.2731743651        1.6384581714        0.0256881247
 H        -4.1499663516        0.1806358769        0.0341428510
 H        -3.8906094540        7.0266251178       -5.3828752634
 H        -4.1402188562        5.4429961693       -4.7193003577
 H        -2.9912696287        6.5641107062       -3.9939931635
 H        -5.9685679741        8.7676303959       -2.7133994487
 H        -5.3516427431        8.9297023209       -4.3242501363
 H        -4.2429015379        8.6718690556       -2.9962237325
 H       -10.5030635377        3.0864568432       -5.4867194052
 H       -12.3112680559        2.7880947732       -5.1284154599
 H       -10.9632954068        2.5406580251       -3.9073694302
 H       -11.1301561834        5.2990073076       -6.4164993158
 H       -11.8481414012        6.4261518349       -5.3437899752
 H       -12.7737629992        4.9847554020       -5.7763626274
 H       -13.7584566434        6.5449948015        2.5239789817
 H       -14.5244613717        5.7154062231        1.2177326790
 H       -13.2463154207        6.8147592421        0.7860275682
 H       -10.3311618568        5.0258580275        2.4206227104
 H       -11.4326781168        5.9708939132        3.1986875116
 H       -10.7481461286        6.4339680390        1.5588768975
 H       -16.6081606957        4.5497251608        5.1238566503
 H       -16.9594247663        4.4943057402        6.7913789739
 H       -15.9043136957        3.2598787398        6.1279880477
 H       -16.1819396655        6.9998127361        7.2405299451
 H       -16.4173070241        6.7226918144        5.4795272098
 H       -14.9041576680        7.4275573199        6.0789376278
 Na       -9.3478964981        2.7093313062       -1.3262975720
