117

 C       -14.0101685654        6.2972433266        8.8824734151
 C       -14.4020547267        5.1900364937        7.8834631622
 O       -14.3612075666        4.0252908747        8.2071614245
 C       -15.1125896537        5.6383713072        6.5268163878
 C       -13.9873699358        5.5614722755        5.4236555489
 O       -13.4819397181        6.5559227246        4.9628434855
 C       -13.5721659423        4.1715094270        4.9410546810
 C       -12.4912963229        4.1027161140        3.8290849233
 C       -13.1446474490        4.3977137402        2.4855497643
 O       -14.1297107575        3.7825517276        2.1838933481
 C       -12.4220824751        5.4430329420        1.4638600440
 C       -11.8502440849        4.6775725686        0.2174363254
 O       -10.6089513194        4.5891937872        0.0387639977
 C       -12.9053147265        3.9769272825       -0.6556292440
 C       -12.4246230796        3.4818187491       -1.9521955071
 C       -11.9073932261        4.5664508496       -2.8684597800
 O       -11.9468107406        5.7320748027       -2.5867189281
 C       -11.1946392138        4.0857488054       -4.2149365401
 C        -9.6067792326        4.4903770710       -3.9526968252
 O        -9.1131029375        3.9163496099       -3.0245733013
 C        -8.8257880955        5.4948221778       -4.7525991523
 C        -7.8927640402        6.3439254162       -3.9541562882
 C        -6.4401319707        6.0618298339       -4.3701209924
 O        -6.1801566477        5.1939007822       -5.1867608775
 C        -5.2495898595        6.7881358366       -3.6558809586
 C        -5.0870956425        6.1912671106       -2.2103801752
 O        -5.2368489482        6.8531531202       -1.2082574405
 C        -4.5799050712        4.7173495541       -2.2021836550
 C        -4.7782810781        4.0234206490       -0.8223026425
 C        -5.9826422441        3.0959380408       -0.6513257995
 O        -7.1490972951        3.5155656096       -0.5212256394
 C        -5.5882976654        1.5236573115       -0.7264414822
 C        -6.8237140762        0.6369986870       -0.4565697605
 O        -7.4684816750        0.2995571039       -1.3997202444
 C        -7.1995021599        0.1886420316        1.0244981493
 C        -8.5336164142       -0.5203194990        1.1971502924
 C        -9.7036011663        0.1865706050        0.4879007288
 O        -9.8303211228        1.4328818802        0.6021807344
 C       -10.5850896356       -0.6678293536       -0.3597955354
 C       -10.1826536877       -0.4006641069       -1.8999147774
 O       -10.0841434187        0.7254830492       -2.3514223954
 C        -9.9450612617       -1.6503929775       -2.7742365779
 C       -10.5353583876       -2.1333870013        0.0431979491
 C       -12.0032002599        0.0312874830       -0.2414434343
 C        -5.1936574744        1.3868697548       -2.2686380853
 C        -4.2456156366        1.1180373586        0.0252355087
 C        -3.8558408048        6.5447862858       -4.3309303164
 C        -5.5187522813        8.3428249582       -3.4584998961
 C       -11.3930844536        2.5750791266       -4.4538993379
 C       -11.8975610474        4.8152938127       -5.3611272206
 C       -13.5599392462        6.4175502956        1.0386578020
 C       -11.2590396618        6.3799151713        1.9985207799
 C       -16.2456479098        4.5987866099        6.1269817651
 C       -15.7758606242        7.0649118362        6.4583585820
 H       -14.8934340580        6.4251201982        9.5002781641
 H       -13.7561176979        7.3168164163        8.5039958911
 H       -13.3251750983        5.8367336981        9.5956303823
 H       -14.4820051481        3.6650097070        4.5845204031
 H       -13.3999021531        3.5973919497        5.9055293782
 H       -12.1474711503        3.0790089541        3.7994664317
 H       -11.6471132340        4.7844586110        4.0426249027
 H       -13.6933859118        4.6940029673       -0.7697700187
 H       -13.2702720377        3.0482524474       -0.1671629866
 H       -13.2837747265        2.9465620858       -2.4606076445
 H       -11.5810184516        2.7541788330       -1.9272875749
 H        -9.5098481887        5.9288125716       -5.4852710543
 H        -8.2295558520        4.8892024562       -5.4507622815
 H        -7.9363891272        6.1238502658       -2.9063291960
 H        -8.0086783094        7.3977177838       -4.0579493014
 H        -3.5595041434        4.7813948125       -2.5652541321
 H        -5.0944641251        4.1175790534       -3.0154322500
 H        -4.7067845945        4.7918332645        0.0514066752
 H        -3.9282876421        3.5321878849       -0.5116423141
 H        -7.2887041635        1.0879548255        1.6106826637
 H        -6.3586929814       -0.4274022902        1.3729879807
 H        -8.7594335363       -0.6731733395        2.2748452823
 H        -8.3776538078       -1.5465474462        0.7438842442
 H        -8.9787685923       -2.0137152810       -2.4955737769
 H       -10.0486215117       -1.2778173930       -3.8108590158
 H       -10.7393365660       -2.3476100038       -2.6177092748
 H       -10.7861907682       -2.3530360514        1.1260932891
 H        -9.5580703094       -2.4246057726       -0.1952794161
 H       -11.2979402703       -2.7490345987       -0.4730561388
 H       -12.7672561304       -0.5620008647        0.1002437782
 H       -12.2817732739        0.5838760148       -1.1419981917
 H       -11.8850687616        0.8663701923        0.4257460395
 H        -4.6107120954        0.4114464404       -2.4164871708
 H        -4.5811244995        2.1460559078       -2.6255579969
 H        -6.0930348370        1.2811578297       -2.8583377567
 H        -4.1740138828        1.3326339650        1.2040347488
 H        -3.3764882678        1.5874280308       -0.4173791080
 H        -4.1033942156        0.0573299816        0.0561259615
 H        -3.8921440074        6.8951937718       -5.3581064217
 H        -3.7549450121        5.4390349401       -4.4013304054
 H        -2.9947689582        6.8598768441       -3.8229297408
 H        -5.9274145974        8.5018000979       -2.4262422329
 H        -6.2566611328        8.6450905919       -4.2061550923
 H        -4.5930816196        8.9733744367       -3.6460515890
 H       -11.3513390685        2.3123663935       -5.5402778871
 H       -12.4189251159        2.3450118483       -4.2171012985
 H       -10.7300275425        1.9128976055       -3.8991492223
 H       -11.2541536889        4.6019886499       -6.1886476874
 H       -12.1491213412        5.9293960708       -5.2414341378
 H       -12.8717981337        4.3840919582       -5.6786503163
 H       -13.6981313233        7.1511421501        1.8209355406
 H       -14.4441944954        5.7977087740        0.9161642238
 H       -13.4362415113        6.9989732116        0.1435405771
 H       -10.4483209883        5.8250429818        2.4617973629
 H       -11.6183793989        7.0890448934        2.6964734260
 H       -10.8767209445        7.1015789043        1.3367427486
 H       -16.6127514895        4.8036179871        5.1055229309
 H       -17.0449760870        4.7469609981        6.8797240090
 H       -15.8762307397        3.5292661443        6.1803611762
 H       -16.3094740440        7.3532656875        7.3710070735
 H       -16.5455328337        7.1651646550        5.6252946222
 H       -15.0469289260        7.8209827689        6.2505121919
 Na       -9.5313594987        2.7454513981       -1.0660250671
