117

 C       -14.2034877462        6.4011081025        8.9073186978
 C       -14.4808748072        5.3178417781        7.8581716533
 O       -14.1356684160        4.1663753432        8.0105662197
 C       -15.2366755969        5.6713360798        6.5351798729
 C       -14.0498140127        5.5538399966        5.4932528678
 O       -13.5364996191        6.5311919968        5.0026818784
 C       -13.4510675000        4.2015152487        5.0475229105
 C       -12.4477430272        4.3947835419        3.9555920223
 C       -13.0530338829        4.6232131278        2.5678505310
 O       -14.1541432874        4.1737961600        2.2430640997
 C       -12.3881994365        5.5145313633        1.4326522095
 C       -11.8488828629        4.6314230014        0.2985942896
 O       -10.6855526953        4.6372298870        0.0149770241
 C       -12.8935054391        3.7854733309       -0.5795307828
 C       -12.3371559822        3.2962957038       -1.9800041093
 C       -11.8129392970        4.4323508053       -2.9416755562
 O       -11.8778556600        5.6138255797       -2.6814907990
 C       -11.1143487800        3.9758306465       -4.2546608365
 C        -9.6717418679        4.3602273647       -3.9810106621
 O        -8.9944587719        3.7908543725       -3.1089944984
 C        -8.9177958374        5.4247688895       -4.8901376010
 C        -7.9112226509        6.1699355037       -3.9808757349
 C        -6.3711235281        6.0098020251       -4.4323745986
 O        -6.1147801505        5.2945152925       -5.3659264014
 C        -5.2300331383        6.8141930939       -3.6658656066
 C        -5.0433845436        6.1920656265       -2.1476707220
 O        -5.2432867579        6.8247722946       -1.1323004834
 C        -4.7482426176        4.6266165698       -2.0328282755
 C        -5.0846762729        4.1209281075       -0.6271279396
 C        -6.0190234155        2.9416811497       -0.6877169733
 O        -7.1825181671        3.0626450756       -0.4337625876
 C        -5.5232060513        1.4114481244       -0.9644539176
 C        -6.8081942998        0.5641654190       -0.5426932904
 O        -7.4690965219       -0.1144874216       -1.3287388586
 C        -7.1711188730        0.5877085818        0.9594173168
 C        -8.3320450204       -0.4089109339        1.0844085020
 C        -9.6110283717        0.2282794310        0.5587023276
 O        -9.7930978878        1.3952950150        0.6760649561
 C       -10.7886978921       -0.6160686785       -0.3390737388
 C       -10.2709682756       -0.4090782977       -1.8277741096
 O       -10.0458829936        0.7360061384       -2.1779390390
 C        -9.8887938006       -1.5982728979       -2.7514303277
 C       -10.9417340973       -2.0936065867        0.0779803337
 C       -12.1689125522        0.0422070213       -0.1790304814
 C        -5.0312019128        1.0226436932       -2.3850709260
 C        -4.4371778618        1.2614609366        0.1908372927
 C        -3.9645253008        6.6061419526       -4.4906600526
 C        -5.5478828719        8.3666113814       -3.5643111457
 C       -11.1596699750        2.4949006943       -4.6411224416
 C       -11.6741791786        4.8554079881       -5.4415098979
 C       -13.4850403002        6.4404489787        0.8798236921
 C       -11.2015131057        6.3142403744        2.0485523873
 C       -16.4055616343        4.6815506154        6.2624417604
 C       -15.6608264238        7.1378196038        6.5906838200
 H       -15.0848899093        6.9764980823        9.1063264325
 H       -13.5357233581        7.1198914325        8.4351226971
 H       -13.8359673473        6.0351270418        9.8098389191
 H       -14.2893209768        3.5404650734        4.7027794230
 H       -13.1344070885        3.6820788515        5.9410036257
 H       -11.8418303182        3.4501472082        3.7882885878
 H       -11.8354647827        5.2475139968        4.2298354913
 H       -13.8433598383        4.3586206335       -0.6344637254
 H       -13.0535154505        2.8666947791       -0.0299751838
 H       -13.0179324547        2.7119819944       -2.5269684391
 H       -11.4844064265        2.6655583224       -1.8647686592
 H        -9.6654056417        6.0418452344       -5.3519696715
 H        -8.4399771323        4.9811665415       -5.7648104458
 H        -8.0262614811        5.9146507844       -2.9047431332
 H        -8.0771343347        7.2715099333       -4.0591441609
 H        -3.6738050314        4.5052107518       -2.2642778202
 H        -5.2706272929        4.0484469431       -2.7583439478
 H        -5.4707107502        4.8421315315        0.0063123639
 H        -4.1115262376        3.8936744821       -0.0581464984
 H        -7.5001218951        1.5991578116        1.2473248833
 H        -6.3451372155        0.1885009147        1.5241282583
 H        -8.4750486399       -0.6780465757        2.1439528133
 H        -8.0472963666       -1.3249331372        0.6360864685
 H        -9.4274933878       -2.3245649966       -2.0898571786
 H        -9.1650823411       -1.2480910049       -3.5053110594
 H       -10.7836299681       -1.9429958942       -3.2212778269
 H       -10.7767064177       -2.1697602478        1.0979936130
 H       -10.2235192869       -2.7715667275       -0.3969331061
 H       -11.9426091708       -2.4441028622       -0.0789163254
 H       -12.9028294571       -0.4757572856       -0.8586127611
 H       -12.1787958910        1.0954728540       -0.3330178820
 H       -12.5807949115       -0.0713067908        0.8597039038
 H        -4.5748144000        0.0516610212       -2.4165558656
 H        -4.1754372465        1.7174287124       -2.7462278081
 H        -5.8950131096        1.0257506315       -3.0714643527
 H        -4.7398820884        1.7073689333        1.0847086840
 H        -3.4531453166        1.7087163471       -0.1001899308
 H        -4.2614130552        0.2220099583        0.4884668178
 H        -4.0215496556        7.1651871253       -5.4293370539
 H        -3.8565421654        5.5694408951       -4.6873808622
 H        -3.0517198785        6.8857863558       -3.9122405999
 H        -6.1533924912        8.5501088561       -2.6904538329
 H        -6.0446562347        8.6977663284       -4.4968840392
 H        -4.6343192457        8.9267864772       -3.4699330315
 H       -10.7057374903        2.4685044991       -5.6131740770
 H       -12.1861473382        2.0078831207       -4.6617952213
 H       -10.4836958951        1.8714455988       -4.0596912079
 H       -11.2145859315        4.7397177005       -6.4533222724
 H       -11.7738176436        5.8454948888       -5.1887670842
 H       -12.7103288959        4.5719536846       -5.5182828582
 H       -13.9016530491        7.0955813149        1.6545111275
 H       -14.2611193278        5.8401654049        0.4548757704
 H       -13.1042542528        7.0597200611        0.0851175343
 H       -10.4983844116        5.6704480456        2.5055457156
 H       -11.4883678670        7.0533493224        2.7843341498
 H       -10.6847383121        7.0009576464        1.3587418873
 H       -16.5708697258        4.7314870607        5.2118652342
 H       -17.2739657176        5.0018818231        6.7736067969
 H       -16.1373889508        3.6978914654        6.5201869606
 H       -16.5767182230        7.2819361810        7.1446351298
 H       -15.8236447588        7.5356765462        5.6408717404
 H       -14.9309166917        7.8425252483        6.9837693288
 Na       -9.5082350375        2.9427597058       -1.0606802635
