117

 C       -14.3099759995        6.3593996286        8.9638348780
 C       -14.4367784103        5.3027745990        7.8300121586
 O       -14.0337743245        4.1930476271        8.0157041204
 C       -15.1897604868        5.7201161105        6.4818296235
 C       -14.0936658657        5.6054048289        5.4188709390
 O       -13.5734282649        6.6288883767        5.0179356817
 C       -13.4529289215        4.2259518382        5.0011836794
 C       -12.4426748643        4.4773079169        3.9032874114
 C       -13.1377431770        4.7205476598        2.5822200705
 O       -14.1965104552        4.1784449249        2.3587162255
 C       -12.3601731984        5.5541258335        1.4151084632
 C       -11.8781526322        4.6043006249        0.2432309033
 O       -10.6525431821        4.5178150457        0.0461884428
 C       -12.8514093044        3.8017936608       -0.5950698030
 C       -12.3723427585        3.2513525962       -1.9320889091
 C       -11.8549323290        4.3343390509       -2.9221692206
 O       -11.9496133391        5.4949533332       -2.6522492004
 C       -11.0490067542        3.9774306975       -4.2970403207
 C        -9.5407172038        4.3337496182       -4.0543369813
 O        -8.8877277535        3.7784787328       -3.2265293998
 C        -8.8061276110        5.5033122463       -4.8446235364
 C        -7.8201611735        6.1948362691       -3.9356419799
 C        -6.3963285962        6.0321234314       -4.4618518630
 O        -6.1204328112        5.3190444527       -5.3985682384
 C        -5.2274513454        6.7598313084       -3.6133555383
 C        -5.1118356284        6.1559745271       -2.1846469366
 O        -5.2894547943        6.8494957715       -1.2060153273
 C        -4.8147167551        4.6434188356       -2.0188292383
 C        -5.1903077359        4.0548284754       -0.6793627738
 C        -6.1219216775        2.8561761938       -0.7519772915
 O        -7.3381806493        3.0422633069       -0.5124977366
 C        -5.5919266083        1.3996311897       -0.9085740908
 C        -6.7687757442        0.4657490608       -0.5127219870
 O        -7.2768266618       -0.2104147883       -1.3465968922
 C        -7.2569286974        0.5069996400        0.9226673196
 C        -8.4708703294       -0.4653151961        1.0536868548
 C        -9.7293534204        0.2083581306        0.6136592151
 O        -9.9081632255        1.4155711599        0.7269142412
 C       -10.7660804335       -0.6146763928       -0.2158415372
 C       -10.1712458940       -0.4397703397       -1.6867078670
 O       -10.1177969369        0.7320303821       -2.0826803409
 C        -9.9273868940       -1.5032399928       -2.6864623550
 C       -10.8762361604       -2.1540951001        0.1271311345
 C       -12.0283956288        0.1686837997       -0.1585944305
 C        -4.9771032199        1.0082300425       -2.2580715751
 C        -4.4153929456        1.1787224386        0.1136869120
 C        -3.9357167745        6.6777104664       -4.5282379868
 C        -5.6245199867        8.2086583774       -3.6226822555
 C       -11.0962371527        2.4761145118       -4.7420803077
 C       -11.6754882113        4.8431077055       -5.4371898490
 C       -13.3497352706        6.5828971605        0.8620986975
 C       -11.1827124225        6.3584745387        2.0392397012
 C       -16.3583647732        4.7643116614        6.3450613040
 C       -15.7383907934        7.2211673895        6.5278892434
 H       -15.1012728001        7.0802523404        9.0782649976
 H       -13.4096205709        6.9839323600        8.6295609342
 H       -14.0938247441        5.8778902725        9.8994205763
 H       -14.2224552570        3.5521128221        4.7266354968
 H       -13.0875377285        3.7815922098        5.8747068783
 H       -11.7626406818        3.6475809212        3.6951115885
 H       -11.9422570238        5.4300987779        4.2071139606
 H       -13.7122696580        4.4406712410       -0.7338785755
 H       -13.1327560052        2.9208573799        0.0334928310
 H       -13.2067899034        2.7871027118       -2.4538443679
 H       -11.5958854739        2.4699868363       -1.8886445961
 H        -9.4764579504        6.1263834227       -5.3810397177
 H        -8.2256223852        5.0200111972       -5.6920167515
 H        -7.8027492156        5.8528654604       -2.8823924331
 H        -8.0217006918        7.3077079243       -3.9128629877
 H        -3.8386098285        4.3575762581       -2.3440712486
 H        -5.5391328955        4.1566658559       -2.7181434694
 H        -5.7105846704        4.7920255825       -0.0311410313
 H        -4.3170691638        3.8577656506       -0.1061824037
 H        -7.6492851763        1.5352732141        1.0942189405
 H        -6.4817129855        0.1846309231        1.6534061644
 H        -8.5381723386       -0.7020101034        2.1221568383
 H        -8.2912135674       -1.4253015588        0.6303151757
 H        -9.5851131590       -2.3970362282       -2.1404787132
 H        -9.1324107762       -1.1649935607       -3.4501116637
 H       -10.8956240971       -1.6050741349       -3.1355799456
 H       -11.1100613029       -2.2537041735        1.1988352091
 H       -10.0427434823       -2.7715360710       -0.0809627126
 H       -11.7643797541       -2.5462892265       -0.4436781954
 H       -12.3654188055        0.2608837337       -1.1770605628
 H       -11.8860464159        1.2004521321        0.2700531088
 H       -12.9234343892       -0.2373481704        0.4204664464
 H        -4.6444588493       -0.0587709859       -2.2034638946
 H        -4.0482464827        1.5042499609       -2.3377413791
 H        -5.5968975119        1.1351418612       -3.0961714526
 H        -4.6353199363        1.5573007283        1.2093535146
 H        -3.4742387720        1.6573001125       -0.2371476434
 H        -4.2481979246        0.1571114199        0.1835662772
 H        -4.0764738529        7.3048713514       -5.4437861862
 H        -3.7244198289        5.6401433538       -4.8007783206
 H        -3.0772610617        7.0348629679       -3.9734323013
 H        -6.4874545279        8.4181878942       -3.0711294886
 H        -5.7410449372        8.4549169515       -4.6531430972
 H        -4.8339307267        8.8359999164       -3.2121038256
 H       -10.4010983470        2.2133437022       -5.5238576059
 H       -12.1909823702        2.2597151343       -4.9715341161
 H       -10.8066937100        1.7823564993       -3.9576404335
 H       -11.0944228640        4.7284220412       -6.3350963404
 H       -11.6598253277        5.9050157472       -5.2254680656
 H       -12.7318590851        4.6529738810       -5.6523573644
 H       -13.6468191341        7.3085313594        1.6734130953
 H       -14.2573793556        6.0898289562        0.4808972432
 H       -12.9255223801        7.1285332005        0.0409171031
 H       -10.2860176976        5.7596395734        2.3280244192
 H       -11.3907201950        7.0061999109        2.8974919188
 H       -10.8440377115        7.1425731417        1.3090526475
 H       -16.6263679259        4.8072727369        5.3253726200
 H       -17.1503992788        5.1704781122        6.8966801473
 H       -16.1370432576        3.7408005359        6.6403439642
 H       -16.6410401134        7.3595142756        7.1413671830
 H       -16.0120612403        7.5442358911        5.5159102947
 H       -15.0772811674        7.9979511291        6.8016366193
 Na       -9.4193549732        2.9851099682       -1.0508378694
