117

 C       -14.5932989793        6.3284902062        9.1168838941
 C       -14.3402582921        5.5046177077        7.8041585120
 O       -13.6249115920        4.5197492259        7.8662563685
 C       -15.1277065352        5.9169171149        6.4997231021
 C       -14.0504448077        5.9912695087        5.3412360447
 O       -13.6673922066        7.0092317204        4.7686695904
 C       -13.6151455446        4.5983554922        4.8066478978
 C       -12.4810134185        4.7050430625        3.7397803489
 C       -13.0919785661        4.8879981390        2.3156513898
 O       -14.1068939976        4.3563928939        2.0052141805
 C       -12.2104861265        5.6898168391        1.2350906636
 C       -11.8637202999        4.5855338100        0.1365642570
 O       -10.7267188117        4.0713326856        0.2462716804
 C       -13.0081613876        4.0500039050       -0.7064039014
 C       -12.6036669354        3.4939262304       -2.0075500191
 C       -11.8861208783        4.4832359756       -2.9523323791
 O       -11.9468018913        5.6774732761       -2.7179358978
 C       -11.1099984862        4.0127788428       -4.2395359803
 C        -9.5066506369        4.3017809928       -4.0101024508
 O        -8.9516285379        3.7693211249       -3.1224944340
 C        -8.7700468100        5.4974233529       -4.8146884614
 C        -7.7348239355        6.2953161122       -4.0019033868
 C        -6.3144455055        6.0253805541       -4.4871347760
 O        -6.0575133186        5.4977558922       -5.5539895689
 C        -5.1512163433        6.7412992960       -3.6826217814
 C        -5.2530924517        6.0748665315       -2.2491271605
 O        -5.5608715709        6.6693575794       -1.2499225675
 C        -5.2727191513        4.4794753430       -2.3242810516
 C        -5.0853317412        3.8681459299       -0.9730256015
 C        -6.1396106558        2.7804765307       -0.7577129694
 O        -7.3332570724        3.1123724760       -0.6810141894
 C        -5.5594093067        1.3109939153       -0.6917396246
 C        -6.5669211186        0.2349647288       -0.2761825668
 O        -6.8967378644       -0.6456579381       -1.0388020231
 C        -7.2027476472        0.2321341035        1.1438259313
 C        -8.5395477083       -0.6171564871        1.1497484082
 C        -9.7892102583        0.1395995179        0.7826874283
 O       -10.0452206880        1.3086427199        1.0560193352
 C       -10.7481099558       -0.6996930677       -0.0813882634
 C       -10.2963651054       -0.4818934145       -1.5489075863
 O        -9.9899366276        0.6324475885       -1.9636530643
 C       -10.0508672718       -1.6746243283       -2.4425550120
 C       -10.9269839380       -2.1791660450        0.2127197753
 C       -12.0820820399        0.2137299066       -0.0388709309
 C        -5.0094918537        0.9816041412       -2.0824403343
 C        -4.3060421164        1.1651539021        0.1902364968
 C        -3.8244585517        6.5055655015       -4.4532459869
 C        -5.3998360788        8.2608235427       -3.5989660009
 C       -11.2682644398        2.5171273369       -4.3999088240
 C       -11.7047184300        4.6768635325       -5.4615850344
 C       -13.0918964723        6.7706781219        0.6257307282
 C       -10.9837580409        6.3616036996        1.7406795683
 C       -16.2246621189        4.7823897053        6.2520331665
 C       -15.8642113197        7.2365552292        6.6477400673
 H       -15.6017619680        6.4635049065        9.3097537407
 H       -14.1376215175        7.2898815629        9.0184862451
 H       -14.1151169392        5.8359354975        9.9552200879
 H       -14.5274035967        4.1716173446        4.3931234024
 H       -13.3891629052        3.8135815067        5.5023118662
 H       -11.9660914284        3.7542267734        3.7878963011
 H       -11.9112271532        5.6521302247        3.9452485335
 H       -13.6697549665        4.8872939970       -0.8664934087
 H       -13.5708411371        3.3063757260       -0.0742981661
 H       -13.4523590419        3.1970971782       -2.5531472474
 H       -12.0113139162        2.5895998913       -1.9579603887
 H        -9.5040364831        6.0984822219       -5.2980652559
 H        -8.2578520209        4.9636712496       -5.6368545622
 H        -7.7621492508        6.0136713337       -2.9316219636
 H        -8.0081335105        7.3741898547       -4.1318417580
 H        -4.5541732327        4.0803380652       -2.9731264520
 H        -6.3101501571        4.2485537097       -2.6757798442
 H        -5.2866691705        4.7548269623       -0.3060092142
 H        -4.1687166355        3.4576513441       -0.9034684866
 H        -7.4179199681        1.2144255780        1.5569206814
 H        -6.4410334594       -0.3210906797        1.7084166761
 H        -8.6704057374       -1.1783188294        2.0574453612
 H        -8.3925563296       -1.4461483487        0.5079360523
 H        -9.1053575420       -2.0960351952       -2.1131027748
 H        -9.9299601431       -1.3731484905       -3.4702013597
 H       -10.8708367667       -2.3426092510       -2.2203925756
 H       -10.7945976865       -2.2451217473        1.2731635150
 H       -10.1567384198       -2.7048893704       -0.1979882133
 H       -11.8165140037       -2.6039661425       -0.1813746042
 H       -11.9758132021        1.0269258573        0.6406547232
 H       -13.0046952751       -0.3201566437        0.3630261095
 H       -12.3707589171        0.6121125194       -1.0014089705
 H        -4.4923464682       -0.0601377308       -2.1150583087
 H        -4.2672784324        1.7153389914       -2.3449844375
 H        -5.8435872593        1.0482015276       -2.8387209553
 H        -4.5389728551        1.4677829724        1.2623324268
 H        -3.5010319513        1.7393023513       -0.1559390009
 H        -3.9968766998        0.0866868574        0.0627477190
 H        -3.9002111020        7.0601115525       -5.4014557076
 H        -3.7268906887        5.4294998962       -4.6631766449
 H        -3.0156646595        6.9318067826       -3.9216062349
 H        -6.3368421533        8.5689806807       -3.1256980381
 H        -5.4944906773        8.5756945693       -4.6336177740
 H        -4.5452628345        8.8153021970       -3.1219454810
 H       -11.1345185595        2.1437636246       -5.4267137412
 H       -12.2178217476        2.1128042915       -4.0279399539
 H       -10.4755376293        1.9720891729       -3.8750505675
 H       -11.1546522739        4.5303519823       -6.3423356426
 H       -11.7296305874        5.7854597529       -5.4877207285
 H       -12.6744466007        4.2431395241       -5.6089696468
 H       -13.2004539165        7.5348179513        1.3775413405
 H       -14.1044478828        6.4641755738        0.4687939154
 H       -12.6488281642        7.1641776763       -0.2505534151
 H       -10.2606964379        5.7709557010        2.2838231594
 H       -11.2509228703        7.0942942888        2.4560294655
 H       -10.3913561214        6.7168841694        0.9387121842
 H       -16.5807879535        4.8110915459        5.2529080129
 H       -17.0376291635        5.0547515638        6.8807151477
 H       -15.8514052161        3.8074658084        6.5845791220
 H       -16.5785586353        7.2896049703        7.4505863545
 H       -16.3497701081        7.6561339363        5.7669552104
 H       -15.1690326643        7.9658550012        6.9277180101
 Na       -9.4926377606        2.6461048827       -1.0041159913
