117

 C       -14.6398791436        6.2106775962        9.1112907338
 C       -14.3643035017        5.6304360222        7.7369738996
 O       -13.4176719950        4.8962260836        7.5916253068
 C       -15.2185664577        5.9829797638        6.4824839709
 C       -14.1855392581        6.0504226357        5.2587065995
 O       -13.7634344423        7.1150000224        4.8370103011
 C       -13.5652377449        4.7745575681        4.6981099463
 C       -12.4798104054        5.0992264249        3.6420410910
 C       -13.0343583508        5.0907740081        2.2413678100
 O       -14.0533849002        4.5433064711        1.9178342051
 C       -12.1540742165        5.7905069226        1.1497790025
 C       -11.9729994991        4.6804667460        0.0484111679
 O       -10.8873997613        4.1040869278       -0.1136857904
 C       -13.1912835221        4.3030572387       -0.7975551692
 C       -12.6966212275        3.6951925320       -2.1041094833
 C       -11.9290384476        4.6488259097       -3.0184527568
 O       -11.7391184242        5.8188449751       -2.7614068648
 C       -11.0656964364        4.0037238716       -4.2758399125
 C        -9.7141942975        4.4539018055       -3.8245161409
 O        -9.1775999761        4.0501278497       -2.8019238344
 C        -8.9023666198        5.3853617279       -4.8457852164
 C        -7.8762532287        6.2685759510       -4.1434865749
 C        -6.5238175252        6.1836216433       -4.7212426889
 O        -6.2947632113        5.6095731480       -5.7739040949
 C        -5.3787860427        6.6610508756       -3.7506562097
 C        -5.3943179287        5.9584566371       -2.3329134920
 O        -5.3654472412        6.5941548810       -1.3110476907
 C        -5.4321241581        4.4007316880       -2.3659415485
 C        -5.0605956275        3.7738262948       -0.9755887610
 C        -6.0266917227        2.5841157150       -0.6904581696
 O        -7.1931174364        2.7930967738       -0.3132678120
 C        -5.4452080267        1.0529365829       -0.6331092029
 C        -6.5240366022        0.0887819478       -0.1919705467
 O        -6.9488142710       -0.7477472897       -0.9473172314
 C        -7.0262734098        0.1823103503        1.3071395483
 C        -8.3818087955       -0.5371073628        1.4312490217
 C        -9.5939460796        0.1293108155        0.8127494917
 O        -9.8549964602        1.2974059637        0.9827623045
 C       -10.7378793344       -0.7975108699        0.0014523134
 C       -10.1833805756       -0.7949755294       -1.5185103327
 O       -10.0128525653        0.3181205270       -2.0685178782
 C       -10.2154145806       -2.0073948879       -2.3668306720
 C       -11.0090756944       -2.2680107362        0.5837789706
 C       -12.0607162446        0.0013092981       -0.0385489969
 C        -4.8946958529        0.7657445018       -2.0225259999
 C        -4.2841914727        1.0483773926        0.4359473309
 C        -3.9408593292        6.3823384475       -4.3310266337
 C        -5.3191248518        8.1765404823       -3.5051204541
 C       -11.0836412231        2.5012482816       -4.4503685460
 C       -11.5861394833        4.7369094464       -5.5064126247
 C       -12.9686159833        6.9694566185        0.6227302312
 C       -10.7451967347        6.2986548913        1.6258704654
 C       -16.2549090390        4.9091347645        6.3440786469
 C       -15.8859836516        7.3548665975        6.6098951785
 H       -15.3354275306        5.6891245704        9.7618999023
 H       -14.8449370753        7.3316811400        9.0394596089
 H       -13.6323824372        6.2308078854        9.5616331042
 H       -14.3851432698        4.1003687828        4.2265177310
 H       -13.2230565701        4.1710260947        5.5805291850
 H       -11.6540466475        4.4066756501        3.5247948224
 H       -12.2114785285        6.1234055706        3.8255549536
 H       -13.7695448839        5.2119151424       -0.9633738540
 H       -13.8944561963        3.6024989810       -0.3327133360
 H       -13.5763787419        3.3342894982       -2.6541838255
 H       -12.0690480429        2.7626547764       -2.0335833815
 H        -9.6093251861        5.9211088439       -5.4120113851
 H        -8.2620315422        4.7236428017       -5.5094133541
 H        -7.8519246514        6.0516629765       -3.1032705045
 H        -8.1696514589        7.3077350164       -4.2949913636
 H        -4.7015104326        4.0441764750       -3.1081104199
 H        -6.4579303543        4.0576958925       -2.5857123366
 H        -5.3352047839        4.5539701849       -0.2096574988
 H        -4.0888129266        3.3054084749       -0.9764367257
 H        -7.1353114781        1.2183123891        1.6630492924
 H        -6.3256521732       -0.3518131742        1.9300022494
 H        -8.6094835577       -0.8614255882        2.5056756919
 H        -8.2323224025       -1.5396321134        1.0156221019
 H        -9.1929825960       -2.3892055942       -2.3633496175
 H       -10.4387563122       -1.7358266794       -3.4291948235
 H       -10.8664365344       -2.6715724908       -1.8905447561
 H       -11.6538629330       -2.1990149724        1.5009609502
 H       -10.1382765537       -2.9113436441        0.6907425875
 H       -11.6249375754       -2.6936389860       -0.2806329805
 H       -12.8260878476       -0.4095596385        0.5190770982
 H       -12.4997046163        0.1326723727       -1.0412511611
 H       -11.8183355395        1.0299936488        0.2702889283
 H        -4.4464526893       -0.2690902779       -2.0511833218
 H        -4.2292165676        1.5141637490       -2.3202329668
 H        -5.6823105826        0.8197184093       -2.7312230989
 H        -4.6431243331        1.7139032176        1.2633793209
 H        -3.4131547118        1.4602649500        0.0332321720
 H        -4.0994544344        0.0491863927        0.7662710479
 H        -3.6541214642        7.0837659150       -5.1531215672
 H        -4.0381944548        5.3862011563       -4.6994873855
 H        -3.2068511098        6.4628506639       -3.5328593592
 H        -6.1645819700        8.5923787820       -2.9986594462
 H        -5.2486074078        8.7657808392       -4.4183350267
 H        -4.3960074209        8.3935047940       -2.9397194927
 H       -10.2280856154        2.1934878263       -4.9925724958
 H       -11.8550436488        2.0305869827       -5.1179628220
 H       -11.0900960691        1.9796470976       -3.5175364541
 H       -11.1581123156        4.6386701903       -6.5051377161
 H       -11.6651148434        5.8237375975       -5.4256365995
 H       -12.6107912740        4.3149665249       -5.6003151399
 H       -13.0002177290        7.8916406801        1.2968539250
 H       -14.0114333573        6.6363426805        0.4693750290
 H       -12.4960711061        7.2435804235       -0.3083031038
 H       -10.1115093815        5.5202673143        2.0703137561
 H       -10.7931160755        7.0255085160        2.4202204513
 H       -10.0995378471        6.5850312182        0.7648750307
 H       -16.8995606458        5.2768528374        5.5343206036
 H       -16.8343633110        4.8025095131        7.2669219925
 H       -15.8221732566        3.8952008518        6.1242006132
 H       -16.5676236521        7.5375202882        7.4806084125
 H       -16.5635697452        7.5536406110        5.7680927534
 H       -15.1907552585        8.1784189607        6.6700002799
 Na       -9.5181140385        2.5208664383       -0.9792368500
