117

 C       -14.6967521996        6.2197537295        9.1228603390
 C       -14.2029670133        5.7468535980        7.7500609291
 O       -13.3275701868        4.8919035547        7.5935997318
 C       -15.2232770071        6.0679994392        6.4248715222
 C       -14.2086122208        6.1592272234        5.2621702293
 O       -13.8482377447        7.2409527245        4.8284397585
 C       -13.5819923698        4.8547595604        4.6471373531
 C       -12.4538867605        5.1175537482        3.6963226228
 C       -12.9955073252        5.1000369574        2.2220236598
 O       -14.0618282431        4.6779495727        1.9467100606
 C       -12.1265284750        5.7873122692        1.0399685751
 C       -11.9828072623        4.7697887958       -0.0945655772
 O       -10.8901930777        4.1810950833       -0.1797302559
 C       -13.1812690954        4.4568634278       -0.9752508777
 C       -12.7991172624        3.6339602415       -2.1880055362
 C       -11.9067734142        4.5478513715       -3.0225052040
 O       -11.8618746020        5.7685804973       -2.7857658698
 C       -11.1280925111        4.0593212700       -4.2019845722
 C        -9.6148252486        4.4977873319       -3.8177320634
 O        -9.0962212902        4.1512374026       -2.8170819510
 C        -8.8827749080        5.3865329995       -4.7728418049
 C        -7.9333098122        6.3840421650       -4.0898251138
 C        -6.4433646300        6.1365027640       -4.6449266733
 O        -6.3044790328        5.7065643563       -5.7824453461
 C        -5.2094438609        6.6123724263       -3.7269964209
 C        -5.3408624801        5.8729560973       -2.3215120623
 O        -5.3378654101        6.4651952353       -1.2721272088
 C        -5.5678199134        4.3562695813       -2.3745765346
 C        -5.1577873655        3.6910188909       -1.0547331402
 C        -6.0721018262        2.5470688260       -0.5405893584
 O        -7.2480755791        2.7193625115       -0.3546223100
 C        -5.4089535089        1.1328547976       -0.5111907566
 C        -6.5248754452        0.0239069015       -0.1603836936
 O        -7.0237322964       -0.7692046376       -0.9567686822
 C        -6.9659321451       -0.0269875453        1.2882157715
 C        -8.4596215121       -0.5617341086        1.5552158698
 C        -9.6702083110        0.0939231907        0.8643295155
 O        -9.8848595328        1.2709764203        0.8667427120
 C       -10.7015395854       -0.7739763645        0.0441162701
 C       -10.2266168707       -0.8164527662       -1.4506268796
 O        -9.9415403056        0.2608738596       -1.8999682812
 C       -10.2382879729       -2.1272189802       -2.2317968699
 C       -10.7772377487       -2.2067266801        0.5725501215
 C       -12.0147176402        0.0100906237       -0.0265679999
 C        -4.7265363186        0.7986638137       -1.9545199479
 C        -4.1863944585        0.9459389164        0.4766538305
 C        -3.8995150895        6.2749954983       -4.4958689315
 C        -5.4790161176        8.1431954519       -3.5356718611
 C       -11.1206528035        2.4548403314       -4.4434270454
 C       -11.6699332350        4.7810380452       -5.4690825231
 C       -12.9032564746        7.0730312257        0.6730666820
 C       -10.7118920666        6.2397714308        1.5049921423
 C       -16.2734453413        4.9288044525        6.3189278357
 C       -15.9948846518        7.3805430029        6.6502114461
 H       -15.4094244026        5.5008645134        9.4749805685
 H       -15.0411659524        7.1856541125        9.1246592264
 H       -13.8342626085        6.2316757287        9.8131390157
 H       -14.2746999048        4.0840803578        4.1913031565
 H       -13.1771447746        4.2940340167        5.5609579939
 H       -11.7287066781        4.3219430338        3.6490948730
 H       -12.0646543678        6.1359703748        3.9648014154
 H       -13.6511268586        5.4011908587       -1.2019601364
 H       -13.9706122568        3.9028320878       -0.4036216639
 H       -13.6305395574        3.2165123914       -2.7052295057
 H       -12.1792263413        2.7658682639       -1.9407569568
 H        -9.6847451769        5.8974993168       -5.2498479377
 H        -8.2598781727        4.7798749994       -5.4300691642
 H        -7.9701761555        6.2286238210       -3.0201626904
 H        -8.3288376246        7.3764871348       -4.3409356423
 H        -4.9192496383        3.9393784850       -3.0959217966
 H        -6.6472622478        4.1138873268       -2.5692732271
 H        -5.3440420952        4.4229011747       -0.2333898178
 H        -4.2493127824        3.2854027976       -1.1754691445
 H        -6.8570941302        0.9335479981        1.7476996755
 H        -6.3306878131       -0.7318570429        1.8316157265
 H        -8.5872224719       -0.4649873823        2.6422391278
 H        -8.4249450749       -1.6406221613        1.5108744353
 H        -9.2712339191       -2.5673417562       -2.0730510355
 H       -10.2847927980       -1.8497683973       -3.2189162786
 H       -11.0608575397       -2.7998704857       -1.9012481222
 H       -11.4351786506       -2.1844538017        1.4810225049
 H        -9.8022615965       -2.6124197612        0.7672471068
 H       -11.2329748959       -2.8368812339       -0.1522301445
 H       -12.9153812814       -0.5210236574        0.2331426798
 H       -12.1953218153        0.3288388986       -1.0569799669
 H       -11.9036721786        0.8980021583        0.4701023839
 H        -4.3281309869       -0.2204100550       -1.8554858834
 H        -3.9645014398        1.5404460322       -2.2151421019
 H        -5.4302414845        0.8563104145       -2.8580108447
 H        -4.3840275926        1.1780701629        1.4927796980
 H        -3.4117768047        1.5075415517        0.0558259822
 H        -3.9585825119       -0.1833192213        0.3062817947
 H        -3.6976780457        6.9416272640       -5.3255434039
 H        -4.0584434647        5.2302829502       -4.8520423215
 H        -3.1134384033        6.3358153778       -3.7992943319
 H        -6.5519195211        8.1939745458       -3.2340133904
 H        -5.3983824476        8.8216716008       -4.3762169650
 H        -4.8617880172        8.6103684248       -2.7166081717
 H       -10.2635469207        2.2234489084       -5.0849361455
 H       -11.8225913575        2.0049388876       -5.0262396455
 H       -11.0588111577        1.8757194944       -3.5179153820
 H       -11.0836053785        4.6218830930       -6.3611040461
 H       -11.7958812906        5.9344586327       -5.4437894787
 H       -12.6310955600        4.3678783883       -5.7747186860
 H       -12.8111552590        7.8590876896        1.4050904930
 H       -13.9554021904        6.7494205944        0.6265072203
 H       -12.5515232059        7.4728667918       -0.2909989549
 H       -10.1507905394        5.5294059810        2.1357773435
 H       -10.7727375904        7.1252125115        2.1229360220
 H       -10.0577430510        6.3858346319        0.6854397812
 H       -17.0888421979        5.3156318258        5.6589345524
 H       -16.6758315466        4.6864734848        7.3402931573
 H       -15.8440820840        3.9613809375        5.9154594488
 H       -16.4375561537        7.5287071555        7.6260289650
 H       -16.9148641673        7.4410809728        6.0137291674
 H       -15.4481505535        8.2907635677        6.4890097897
 Na       -9.5610185547        2.4883329440       -1.1222099713
