117

 C       -14.7608955254        6.2078657621        9.0634908341
 C       -14.2399927804        5.8802171655        7.6995008756
 O       -13.1962465231        5.2003046885        7.6563215641
 C       -15.1411871441        6.1945289770        6.5059941438
 C       -14.2487841121        6.3600759151        5.2283483854
 O       -14.1085367955        7.4571982999        4.7205652422
 C       -13.6093361433        5.1100284990        4.6195122005
 C       -12.4734643904        5.4737582823        3.6183228339
 C       -12.9936883528        5.3040271793        2.1631930390
 O       -14.0656987474        4.8999382513        1.8636128532
 C       -12.0822987367        5.8753319912        1.0018540750
 C       -12.0619197943        4.8328265469       -0.1373075290
 O       -10.9877721737        4.3014120248       -0.4162897341
 C       -13.3179449212        4.3988393577       -0.8561582545
 C       -12.9726068499        3.7979697896       -2.1913997225
 C       -12.1130854647        4.6831379941       -3.1487669490
 O       -12.1007546226        5.8998962971       -3.0206899415
 C       -11.1052784129        4.0786379080       -4.1946187532
 C        -9.7011626788        4.4848855944       -3.9522157096
 O        -9.0107334916        3.9493898788       -3.1298426633
 C        -9.1376747438        5.7081032925       -4.8532550817
 C        -7.9724023929        6.4029491057       -4.1081479597
 C        -6.5613573465        6.1197450218       -4.6868360443
 O        -6.3822966670        5.6160043973       -5.7921942397
 C        -5.2373852811        6.5369104735       -3.6658139040
 C        -5.3190777040        5.6851988788       -2.3040795696
 O        -5.0619047629        6.2716019493       -1.2892353501
 C        -5.7416268672        4.2616146164       -2.2692197507
 C        -5.2871975499        3.5356087348       -0.9531563263
 C        -6.1988547419        2.2831836592       -0.6653591674
 O        -7.4157250732        2.3145670685       -0.6402969753
 C        -5.4799129100        0.9028162700       -0.4275036415
 C        -6.6528742287       -0.0223060661       -0.0347824227
 O        -7.2277232093       -0.7170380264       -0.8636416675
 C        -7.0048747718        0.0316815255        1.4344082368
 C        -8.3423796719       -0.6253119280        1.6019961515
 C        -9.4520059281        0.0882970845        0.7989161785
 O        -9.4900564432        1.2708479688        0.7276020591
 C       -10.5038626929       -0.8717126786        0.2050142939
 C       -10.0946099336       -0.8921659673       -1.2830678409
 O        -9.7667043372        0.1285613276       -1.8637085820
 C       -10.0084825659       -2.1505300645       -2.1154458897
 C       -10.5630516851       -2.2353816113        0.8411305980
 C       -11.9203735012       -0.1267482967        0.2151124343
 C        -4.8423372378        0.4248012719       -1.7902427577
 C        -4.3642643123        1.0254605689        0.7221101800
 C        -3.9052457669        6.1205792225       -4.3697962275
 C        -5.1265097499        8.0112714545       -3.2712674014
 C       -11.0691075361        2.4470627399       -4.2947793776
 C       -11.6348389888        4.5493472977       -5.5976909986
 C       -12.6531000530        7.2657231458        0.5255468157
 C       -10.6400685810        6.1677292458        1.4752140500
 C       -16.0345145098        4.8973108169        6.2710939910
 C       -16.0475710213        7.4234813529        6.7385404367
 H       -15.8682742431        6.2427126543        9.1254382551
 H       -14.3104850632        7.1968710972        9.2956960173
 H       -14.3322808952        5.4648538553        9.8393904658
 H       -14.3598932807        4.4666931814        4.1282850709
 H       -13.1682880756        4.4989153544        5.3827101398
 H       -11.6267942119        4.8035450206        3.7814695771
 H       -12.1839553989        6.5096653230        3.7081011182
 H       -14.0461795269        5.1903857560       -0.8878398015
 H       -13.7891894147        3.6784108595       -0.1715023223
 H       -13.8017607828        3.4134775722       -2.8115795598
 H       -12.3051874313        2.8754466641       -1.9997884403
 H        -9.8968980274        6.4173638653       -4.8396471402
 H        -8.8229383516        5.2399521047       -5.8304839973
 H        -8.0186966659        6.1289129612       -3.0606090186
 H        -8.2200939905        7.4785010088       -4.1511624831
 H        -5.3159190911        3.7584336272       -3.1488155400
 H        -6.8581117354        4.2502563595       -2.3492472320
 H        -5.5966487365        4.2342066539       -0.0621409739
 H        -4.2936649001        3.2123378504       -1.0166337066
 H        -7.0084623688        1.1061295670        1.7435507449
 H        -6.2327679532       -0.4204438591        2.0730780364
 H        -8.6423242551       -0.6498196551        2.7156430767
 H        -8.1638472786       -1.6590488522        1.2730542279
 H        -9.9847753463       -3.0143038778       -1.4246669918
 H        -9.1499060764       -2.1179637640       -2.7721124686
 H       -10.9394888669       -2.1272321897       -2.7357636443
 H       -10.6240559609       -2.2327147360        1.9641725413
 H        -9.7428413598       -2.8177813478        0.4514262143
 H       -11.5830381139       -2.6422714478        0.6297629645
 H       -12.5549458942       -0.2241724450       -0.6673688054
 H       -11.7268107169        1.0024524002        0.3995221667
 H       -12.4727202908       -0.4887559595        1.0789288063
 H        -4.5155955844       -0.6104602107       -1.6614432267
 H        -4.0391413365        1.0189822772       -2.0190590960
 H        -5.5141070039        0.4711024738       -2.6189357443
 H        -4.6865002346        0.9129511448        1.7430822591
 H        -3.9605469114        1.9184359584        0.5088546570
 H        -3.6416780946        0.2015800241        0.4244534501
 H        -4.0193174102        6.4492301490       -5.4291799614
 H        -3.7985928421        5.0341447437       -4.3610777728
 H        -3.0890154517        6.6069100232       -3.8702251930
 H        -5.9086535721        8.3239351115       -2.6261403950
 H        -5.1797443274        8.6549970618       -4.1052569573
 H        -4.1944675998        8.2387320050       -2.7380098222
 H       -11.1938627119        2.0741564738       -5.3143344449
 H       -11.8176176566        1.8225474979       -3.7874534426
 H       -10.1432088571        2.0516292265       -3.8315424589
 H       -11.0389617753        4.3160249226       -6.4237312242
 H       -11.9521065219        5.6162355020       -5.6800488131
 H       -12.5707489906        4.0498602411       -5.7837887736
 H       -12.5853957362        7.9747928437        1.3687295431
 H       -13.6483513642        7.1229718545        0.1057376977
 H       -12.0100112733        7.6916348948       -0.2148991629
 H       -10.1221024464        5.1982987048        1.7535593296
 H       -10.6981097174        6.7839110235        2.3861000062
 H       -10.0201980533        6.8579348638        0.8471994184
 H       -16.3095203967        4.8821209597        5.2600374350
 H       -16.9040990756        4.9751588279        6.8410450055
 H       -15.5249136856        3.9640268777        6.4683365270
 H       -16.9095374790        7.2674601808        7.4060924897
 H       -16.4469513422        7.9080790557        5.8412768703
 H       -15.4922424528        8.1925386067        7.2061587877
 Na       -9.6644610559        2.5569256225       -1.3140279422
