117

 C       -14.7917306267        6.2833604298        9.1493127907
 C       -14.2194796190        5.8239962601        7.7643701044
 O       -13.1308213565        5.3119586222        7.6106452138
 C       -15.1647232071        6.1818880562        6.4850322041
 C       -14.2552524046        6.4186838809        5.2123988607
 O       -14.1249112490        7.4941520564        4.6764949902
 C       -13.5752290771        5.1428317186        4.6321073050
 C       -12.5682293580        5.6450421844        3.5755585893
 C       -13.0419027847        5.4160956336        2.1361444000
 O       -14.1189342150        4.8876383906        1.8684161985
 C       -12.0106638729        5.9419652458        0.9709078738
 C       -11.9611613052        4.8452733646       -0.1643399542
 O       -10.8756382687        4.2998985743       -0.3977090994
 C       -13.2087448739        4.4276735673       -0.9230725501
 C       -12.9997914009        3.7982690127       -2.2622660207
 C       -12.0462326143        4.7201112085       -3.1630349801
 O       -12.1714583213        5.9214919324       -3.0831873788
 C       -11.1899234566        4.0165963245       -4.3239923099
 C        -9.7034318269        4.5219829470       -4.0188874880
 O        -9.0190471878        3.9344986876       -3.2506330353
 C        -9.1316171154        5.7739992954       -4.6733274962
 C        -7.9321944208        6.5193442208       -4.0272929180
 C        -6.5101939583        6.0416894496       -4.4839665553
 O        -6.3741462430        5.6481578638       -5.6034259009
 C        -5.2339691418        6.4119568304       -3.6944509612
 C        -5.2757657887        5.6714799279       -2.2569930198
 O        -4.9831768362        6.2600147887       -1.2300261576
 C        -5.7577422445        4.2081829484       -2.3234022372
 C        -5.3912085835        3.5310666607       -1.0532266652
 C        -6.2310548722        2.2749624879       -0.8097803904
 O        -7.4227280824        2.3448229915       -0.8157881177
 C        -5.4656996898        0.9025811598       -0.5015435844
 C        -6.5758438552       -0.0421259844        0.0858613177
 O        -7.2758582832       -0.7550523830       -0.6113008760
 C        -7.0126027444        0.0655525428        1.5566797184
 C        -8.3136959116       -0.7057126557        1.7132294101
 C        -9.4180131794       -0.0291356859        0.8955073166
 O        -9.4557703741        1.1756498825        0.7245873641
 C       -10.5185782628       -0.9072201588        0.1942563376
 C       -10.0765317675       -0.8373898679       -1.3043149891
 O        -9.8996005661        0.2276844907       -1.8637566135
 C        -9.9379088919       -2.2634815051       -2.1379235460
 C       -10.5693432153       -2.2925599624        0.8488488565
 C       -11.8158822356        0.0181045707        0.2345677937
 C        -4.7741958340        0.2912934564       -1.7166226520
 C        -4.3737403465        1.1107098524        0.5739268834
 C        -3.9532533810        5.9215244313       -4.3686263368
 C        -5.2050165783        7.9382098662       -3.3504633510
 C       -11.1891541652        2.4686484963       -4.2120115615
 C       -11.7598724105        4.4131237790       -5.6914857513
 C       -12.6168116162        7.2893438105        0.4365713324
 C       -10.5745326449        6.1289555628        1.4669160444
 C       -16.0804473834        4.9432269456        6.2490806283
 C       -16.0296519791        7.3857506040        6.7254089557
 H       -15.9029702417        6.5205648058        9.1090404403
 H       -14.2223057930        7.1614433250        9.4292392985
 H       -14.6237031593        5.5130567773        9.9458526545
 H       -14.3085107537        4.3417756889        4.3166156481
 H       -12.8782884804        4.6333953951        5.3918103832
 H       -11.6234961413        5.1935807379        3.7420094313
 H       -12.4619801311        6.7565424654        3.6651126689
 H       -13.8579334095        5.2971441882       -0.9910863351
 H       -13.7666049730        3.7814316076       -0.2075160686
 H       -13.9007979802        3.6820026604       -2.8841915442
 H       -12.5555789655        2.7711103801       -2.1423966745
 H        -9.9380527419        6.4904561751       -4.6584140926
 H        -8.8398021376        5.3434112996       -5.6354001262
 H        -7.9975411688        6.3800568863       -2.9659217152
 H        -8.1369334940        7.5699318778       -4.1977433688
 H        -5.3104256633        3.7772993036       -3.2096399732
 H        -6.8923129295        4.2454349187       -2.4482134981
 H        -5.7413403849        4.2893045711       -0.2912689610
 H        -4.3502907971        3.2772025496       -0.9927926749
 H        -7.1338819963        1.0783435623        1.8874606448
 H        -6.2114664405       -0.3134964963        2.1953864876
 H        -8.6463261380       -0.7816161381        2.7873827509
 H        -8.0767440961       -1.7242806603        1.3169503394
 H       -10.0981708957       -3.0684004889       -1.4384358698
 H        -8.9970526000       -2.3575221568       -2.5883323776
 H       -10.7200357155       -2.2488555774       -2.9533137141
 H       -11.0957541656       -2.2531288892        1.8432623296
 H        -9.5117084464       -2.6915674158        0.8932282861
 H       -11.2733911256       -2.9394742223        0.3582150461
 H       -12.1899348588        0.3083637204       -0.7953971604
 H       -11.6310832450        0.9430731990        0.7811287526
 H       -12.6192695131       -0.5052136939        0.6847401972
 H        -4.3773913603       -0.6273826764       -1.4617480722
 H        -3.9340698663        0.9090440869       -2.0817831998
 H        -5.4935584015        0.1276043379       -2.5251677604
 H        -4.7595744979        1.4300653304        1.4550130325
 H        -3.7125226734        1.8525619060        0.0705422681
 H        -3.9424488275        0.1174953778        0.6422994297
 H        -3.9895818445        6.2994561813       -5.3718346951
 H        -3.9274209208        4.7948487508       -4.4258314901
 H        -3.1340351108        6.2832466700       -3.7705196893
 H        -6.0380093438        8.2110928520       -2.6986878047
 H        -5.2693669885        8.5904645835       -4.1806297774
 H        -4.3396833780        8.2163494645       -2.7681653357
 H       -11.2106378571        1.9410591926       -5.2076960943
 H       -11.8923087846        1.9812829217       -3.6425831779
 H       -10.2524722707        2.1885314961       -3.6862370225
 H       -11.0626071600        4.3013786971       -6.5055164741
 H       -12.1600294720        5.4595205760       -5.6894249311
 H       -12.6497948270        3.8750260359       -5.9994014152
 H       -12.5472443934        8.0604319981        1.1780362272
 H       -13.6322588248        7.0498464837        0.0729764838
 H       -12.0276438576        7.6803061750       -0.4526845455
 H       -10.1856343817        5.1384923765        1.8085375876
 H       -10.5227758213        6.8754921129        2.2979164280
 H        -9.9531531582        6.6445773299        0.7638470817
 H       -16.4400617220        4.8092565504        5.2423453236
 H       -16.9352122630        5.0382236188        6.9131486461
 H       -15.5178250759        4.0506312855        6.4607448611
 H       -16.9528751142        7.1737443887        7.2354621060
 H       -16.3103599310        7.9759676062        5.8139974841
 H       -15.5165136169        8.1442025813        7.3428541678
 Na       -9.6922657403        2.5534113206       -1.2799625293
