117

 C       -14.7381837808        6.2923755647        9.1306902550
 C       -14.2616667884        5.9320880698        7.7454231708
 O       -13.1908332356        5.4241053890        7.6110649071
 C       -15.1922954992        6.1497527879        6.5217204619
 C       -14.2970710144        6.3902779676        5.2286905496
 O       -14.2220530916        7.5121146843        4.7779655864
 C       -13.4598117953        5.3030515215        4.6352182338
 C       -12.5213993328        5.7702582251        3.4885002004
 C       -13.0174366943        5.4943469756        2.0525060731
 O       -14.0715940305        4.9074993437        1.7865838524
 C       -11.9790612674        5.9077743847        0.9544258445
 C       -11.8818679014        4.8501541531       -0.1485401898
 O       -10.8060837897        4.3234013365       -0.3542402376
 C       -13.1758152628        4.5762583313       -0.9623454455
 C       -12.9616729348        3.8493505972       -2.2430794841
 C       -12.1463659181        4.6768566862       -3.2680418433
 O       -12.1329908446        5.8621904981       -3.1815450139
 C       -11.1965444004        3.9535601503       -4.3479375300
 C        -9.6505715789        4.5753323092       -4.0470663332
 O        -9.0054661536        3.8816785332       -3.2350985518
 C        -9.1366615431        5.9507909429       -4.6423279296
 C        -7.9325804581        6.5329610195       -3.8627207151
 C        -6.5320282446        6.0731177473       -4.4277369284
 O        -6.4338829799        5.5454501514       -5.5079053456
 C        -5.2665260424        6.4072854967       -3.6268675280
 C        -5.3320699625        5.6910532079       -2.2430362814
 O        -4.9331671594        6.1502895332       -1.1942318775
 C        -5.7809056039        4.1953351782       -2.3247922532
 C        -5.3963841735        3.4940404321       -1.0640328613
 C        -6.1894094653        2.2134980901       -0.9020919240
 O        -7.4122501917        2.2924136847       -1.0266806719
 C        -5.4742267326        0.8594600473       -0.4708039747
 C        -6.6057436794       -0.0384948327        0.1726589449
 O        -7.1844195974       -0.8215892795       -0.5394742999
 C        -7.0027433370        0.0921057181        1.6941457645
 C        -8.2956160316       -0.7021169050        1.9506135181
 C        -9.3426387536       -0.1011358175        1.0035534129
 O        -9.2943074067        1.1495155166        0.8586153935
 C       -10.4989548353       -0.8860183673        0.1746771613
 C       -10.0700470329       -0.8527249922       -1.3238147798
 O       -10.0435887493        0.1575442720       -2.0226724551
 C        -9.8530524057       -2.1600154359       -2.1134674112
 C       -10.8055667872       -2.2600399515        0.7537818978
 C       -11.7949987316       -0.0802290571        0.3034761602
 C        -4.8651025327        0.1895995113       -1.7300548085
 C        -4.3043213785        1.2233879080        0.5582867983
 C        -4.0482726129        5.8236067234       -4.3862025742
 C        -5.2526877038        7.9133550745       -3.4810316025
 C       -11.2232967032        2.4571536728       -4.2718295629
 C       -11.7996331447        4.3865087086       -5.6938301353
 C       -12.5837597093        7.2020820761        0.3578811876
 C       -10.5774245371        6.1468988296        1.4889190314
 C       -16.1080619329        4.9265306927        6.2561512635
 C       -15.9977358383        7.4578098649        6.6973138362
 H       -15.7952904484        6.4642095117        9.1770795044
 H       -14.1866652140        7.1173305874        9.6105670867
 H       -14.5408089908        5.4273028956        9.6747135356
 H       -14.2561674375        4.5925649578        4.2582142773
 H       -12.8217003621        4.6675979035        5.3387654233
 H       -11.5237912278        5.2918990662        3.6079538338
 H       -12.3716077460        6.8757600044        3.5210095239
 H       -13.7094811286        5.5499354234       -1.1157538469
 H       -13.8827222625        4.0149341238       -0.3323523336
 H       -13.9216262238        3.6392919649       -2.7433656097
 H       -12.4667276605        2.9228034013       -2.1086003866
 H       -10.0415626692        6.6342318442       -4.6053793688
 H        -8.7284173650        5.6558733550       -5.5662484766
 H        -7.9643260466        6.3986907603       -2.7643845520
 H        -8.0228460247        7.6066907730       -3.9860483511
 H        -5.2472856528        3.7322546674       -3.1762995609
 H        -6.8535337932        4.1617669662       -2.5224787737
 H        -5.5113425121        4.1690172475       -0.2825092764
 H        -4.3069594195        3.0931066998       -1.1387157750
 H        -7.1735821711        1.0920498361        2.0383676861
 H        -6.1303373501       -0.2006497498        2.2630165509
 H        -8.6808052987       -0.5343647142        2.9275164129
 H        -8.1121915799       -1.7666234804        1.7457116453
 H       -10.1016291323       -3.0083060361       -1.5175389816
 H        -8.7630695418       -2.1288864727       -2.3409188508
 H       -10.3517366356       -2.0899649492       -3.0339671085
 H       -11.3814230433       -2.1435913468        1.6441814692
 H        -9.8681164936       -2.8283221970        0.9435174585
 H       -11.5375557987       -2.7834841916        0.1509107816
 H       -11.9638996833        0.4919012560       -0.5995306780
 H       -11.8686400604        0.5619595134        1.1065212580
 H       -12.6252543427       -0.8218390496        0.2828175702
 H        -4.2109146556       -0.6694851709       -1.4688959561
 H        -4.1693381312        0.9169361406       -2.2717734072
 H        -5.6593673927       -0.1655408165       -2.3906449177
 H        -4.7376117420        2.1426707446        1.0734755378
 H        -3.3973925508        1.5038381817       -0.0459436524
 H        -4.2563501640        0.4364020311        1.1894199051
 H        -4.1093820854        6.3530978469       -5.3087254022
 H        -4.2391872252        4.7859765783       -4.6237033926
 H        -3.1038443038        5.9173191515       -3.8067112068
 H        -6.1033064655        8.4256151352       -3.0097032802
 H        -5.1938331313        8.2936631876       -4.5297555384
 H        -4.4228096551        8.3333496706       -2.9560855615
 H       -10.8647988017        2.0195760316       -5.2212600921
 H       -12.2872243678        2.1146856351       -4.0688730024
 H       -10.6895246829        1.9796479616       -3.4930446633
 H       -11.0613558409        4.2020762325       -6.5428161251
 H       -12.0992302943        5.4040466316       -5.7060788793
 H       -12.7453345888        3.9161091142       -6.0236781997
 H       -12.3861690838        7.9811205539        1.1008672717
 H       -13.6293657523        7.0901230220        0.0666384838
 H       -11.9988325795        7.5106949856       -0.5477219143
 H       -10.2381365000        5.2895310038        2.0041197135
 H       -10.4208730342        7.0740526316        2.0262249008
 H        -9.9816038411        6.3727482773        0.6340168446
 H       -16.7342646832        4.9901408757        5.3254022528
 H       -16.8084239430        4.8134279406        7.1284877999
 H       -15.4723068247        4.0525746786        6.1030037146
 H       -16.9327116331        7.2909650496        7.2417661351
 H       -16.2959786172        7.8974638107        5.7557540557
 H       -15.4718548244        8.3170793452        7.2145088629
 Na       -9.7200914751        2.5069246247       -1.2530750405
