117

 C       -14.7692690207        6.2504240293        9.1197681533
 C       -14.2617826947        6.0101598875        7.6522357928
 O       -13.1744812384        5.5547032835        7.5058417285
 C       -15.2472837276        6.3598736630        6.4469995065
 C       -14.3673426155        6.6463952279        5.1779660378
 O       -14.3052456722        7.7887963739        4.8081789620
 C       -13.6071682792        5.4939976547        4.4668245548
 C       -12.4667700263        6.0239683442        3.5339748375
 C       -12.7620954812        5.6387927168        2.0597605847
 O       -13.7617791531        4.9399235919        1.8252969584
 C       -11.8326408625        6.0933578196        0.8930141293
 C       -11.8307380271        4.8984791925       -0.1528050800
 O       -10.8224130795        4.1707359411       -0.1603100553
 C       -13.0211321309        4.6760259187       -1.0572727515
 C       -12.7280308315        3.7793601375       -2.2683383764
 C       -12.0750268667        4.6545152133       -3.4157754691
 O       -12.1281824802        5.8513928015       -3.4573374567
 C       -11.0955657427        3.9676703333       -4.5418577105
 C        -9.7442311854        4.4855902949       -3.8700207482
 O        -9.2141725109        3.8107510988       -3.0180121761
 C        -9.2312280575        5.8570789479       -4.2571706677
 C        -8.0334401548        6.4652348345       -3.6470677824
 C        -6.7804279144        5.9661633060       -4.3381212952
 O        -6.9002243796        5.2317048632       -5.2791565096
 C        -5.4185137846        6.3397304440       -3.7323280836
 C        -5.4206184394        5.6210509963       -2.3609092119
 O        -5.0114007218        6.2541844009       -1.4111380656
 C        -5.9426874224        4.1760229690       -2.3441841006
 C        -5.3562800046        3.2981184684       -1.2415268399
 C        -6.1658604984        1.9883623318       -1.0396923658
 O        -7.3176605571        1.8578929486       -1.4739131964
 C        -5.5342327394        0.7334169669       -0.3042720299
 C        -6.6119318632       -0.1927935565        0.3914370904
 O        -7.0856138325       -1.1055185190       -0.2480938760
 C        -7.0687288581       -0.1344556726        1.8961059736
 C        -8.4900717021       -0.6782979460        1.9394532672
 C        -9.3740155436        0.0489863520        0.9449661817
 O        -9.2503293006        1.2749544957        0.7462211291
 C       -10.5359203981       -0.7125955033        0.2581263335
 C       -10.0912743973       -0.7433777282       -1.2978826779
 O       -10.3738807895        0.2483945863       -2.0018759837
 C        -9.3762264701       -2.0119435045       -1.8425639742
 C       -10.5924912188       -2.1871437601        0.8406279472
 C       -11.8162521670        0.0410718418        0.4036922159
 C        -4.8591662603        0.0098045140       -1.5118225689
 C        -4.3838393245        1.0124936445        0.7382946348
 C        -4.2899063938        5.8067658813       -4.6357197489
 C        -5.3136903953        7.8251035662       -3.4700180408
 C       -11.1127199667        2.4446963340       -4.6387357275
 C       -11.3916804132        4.5933434656       -5.9142434292
 C       -12.4078444469        7.3984902731        0.3525948822
 C       -10.3821482288        6.3611776227        1.2975071386
 C       -16.0497265323        5.0327886717        6.3606843196
 C       -16.2288170145        7.5058503294        6.7719667824
 H       -15.8548450815        5.9661765745        9.3072922794
 H       -14.7019615878        7.3592506715        9.3096807436
 H       -14.0983721337        5.7161962639        9.8071911284
 H       -14.2599515317        4.9114401696        3.8490833638
 H       -13.2197837085        4.8659773723        5.2901156978
 H       -11.4631012963        5.7664711226        3.7205691876
 H       -12.5398815454        7.1208884309        3.6125903387
 H       -13.4035481588        5.6653482943       -1.3093936915
 H       -13.8113926515        4.2282981098       -0.4445998958
 H       -13.6723488983        3.2946308667       -2.6360194083
 H       -11.9424248374        3.0132010708       -2.0096175576
 H       -10.1318373475        6.4460368459       -4.0332306766
 H        -8.9570932511        5.7533534339       -5.3142165648
 H        -7.9768909113        6.3321758168       -2.5652544342
 H        -8.1193299438        7.5541799284       -3.7318783740
 H        -5.8529556693        3.7115939877       -3.3240488961
 H        -7.0295807245        4.3983502728       -2.1641006308
 H        -5.3672450249        3.7866183815       -0.2375819908
 H        -4.2738973255        3.0493053280       -1.3398625556
 H        -7.0419515963        0.8483725484        2.3556096196
 H        -6.4448521017       -0.7208321248        2.6091992123
 H        -8.9043132750       -0.4081215215        2.9386550503
 H        -8.3960111280       -1.7860493811        1.7291281008
 H       -10.1814720271       -2.7469971855       -2.0326278842
 H        -8.5645103431       -2.3728702685       -1.2048111439
 H        -8.9133577034       -1.6882791306       -2.7864333430
 H       -10.6308003194       -2.1969740098        1.9460484142
 H        -9.6255547708       -2.7758884252        0.6644680887
 H       -11.4012986000       -2.7584460732        0.3949452009
 H       -11.8245821970        0.6425625991        1.3740252027
 H       -12.6584125898       -0.6010286696        0.5051357926
 H       -11.8811330532        0.7903671537       -0.4172697486
 H        -4.2645385856       -0.8084763925       -1.3066471146
 H        -4.1934453053        0.7049948660       -2.0326177281
 H        -5.6197713310       -0.3203491873       -2.1583739137
 H        -4.5929865693        1.9585066659        1.1850713579
 H        -3.4419106849        1.0033428699        0.1563298134
 H        -4.4810112981        0.2881951011        1.3924016151
 H        -4.2507113081        6.3428881737       -5.5432936771
 H        -4.5670097952        4.7459250577       -4.8065945922
 H        -3.3734495862        5.7930145716       -4.0553063229
 H        -6.1414908348        8.0960582813       -2.8045839698
 H        -5.2933401474        8.4976072970       -4.2946856984
 H        -4.4790767438        8.0518993533       -2.8546394937
 H       -10.0842345229        2.0385347120       -4.6600535238
 H       -11.7313956450        2.1895020950       -5.4696994037
 H       -11.5740103769        1.8800552483       -3.8384443760
 H       -10.6978237237        4.2421087212       -6.6736977383
 H       -11.3412106106        5.6461338307       -5.8699316982
 H       -12.3879643851        4.3966424222       -6.2578071650
 H       -12.3219684332        8.1628999483        1.0714882770
 H       -13.4681311039        7.2747246588        0.1593090247
 H       -11.9363086531        7.5911140211       -0.6319147174
 H        -9.8630550327        5.3940618786        1.4991844006
 H       -10.3676989507        7.0772708846        2.1830491069
 H        -9.9064645270        6.8955538481        0.4610039946
 H       -16.8948344839        5.1094249742        5.7160932349
 H       -16.4256327513        4.7351862273        7.3278712124
 H       -15.4100815665        4.2955509690        5.9686662952
 H       -16.5927552960        7.4183573807        7.7611479813
 H       -17.0902891834        7.4793472464        6.1024985888
 H       -15.7896624466        8.5070905175        6.6239788881
 Na       -9.6620920753        2.2931684238       -1.3254375609
