117

 C       -14.7469432351        6.2952378664        9.1047509739
 C       -14.2636468468        6.0765724387        7.6895739371
 O       -13.1782237006        5.6033536546        7.3857360299
 C       -15.2265208342        6.3443672134        6.5010183667
 C       -14.3734451111        6.7329273634        5.1961555352
 O       -14.3620759620        7.8970199431        4.8182961333
 C       -13.6377047476        5.6700213908        4.4563757614
 C       -12.5300028506        6.1130296590        3.5150075837
 C       -12.7135876297        5.5716542331        2.0692395578
 O       -13.6667666269        4.9195524995        1.7800508378
 C       -11.7989915271        6.0928193818        0.8849221956
 C       -11.7251510166        4.9146946242       -0.1190148959
 O       -10.8045250267        4.1470594677       -0.0619133462
 C       -12.9537037290        4.6623277065       -1.0666190280
 C       -12.6540162046        3.8204675215       -2.3175854720
 C       -12.0899347910        4.6143358035       -3.4655852435
 O       -12.2520081259        5.8143009092       -3.5443460022
 C       -11.0823762371        3.9857990458       -4.4996893681
 C        -9.7399087327        4.5096113455       -3.8366599266
 O        -9.2005838166        3.8271039032       -2.9330637746
 C        -9.3478192782        5.9834297915       -4.1887903597
 C        -8.0758426377        6.4879342991       -3.6073226469
 C        -6.8237179959        5.9682117253       -4.3621703267
 O        -6.9490298351        5.1328581158       -5.2722667627
 C        -5.4421657445        6.3366968648       -3.7303609754
 C        -5.3777677670        5.5365060524       -2.3533821622
 O        -5.0792061719        6.0809658140       -1.3258618203
 C        -5.9722317720        4.0501814775       -2.2828783846
 C        -5.4122407159        3.2301515976       -1.1409457569
 C        -6.1716440506        1.9040212985       -0.9667072140
 O        -7.2734113444        1.7726189343       -1.4765747125
 C        -5.5072930880        0.6569978940       -0.3066664605
 C        -6.6074601929       -0.2853312605        0.3349874105
 O        -7.0308398666       -1.2150923168       -0.3092858239
 C        -7.0307498699        0.0000765279        1.7678839200
 C        -8.4788197059       -0.5637011096        2.0359999736
 C        -9.3861131360        0.1300374875        1.0268845133
 O        -9.0941357051        1.2945844585        0.7348852474
 C       -10.4970596253       -0.7011748424        0.2479096240
 C       -10.1342697990       -0.7437404132       -1.2952458410
 O       -10.3892727297        0.1811336137       -2.0167166310
 C        -9.3634049346       -1.9022611293       -1.8595272413
 C       -10.6492364383       -2.0734812453        0.8705840168
 C       -11.9179001722       -0.0576823112        0.4379033841
 C        -4.7994384658       -0.1953018118       -1.3981648218
 C        -4.4183494126        1.0721031449        0.8328980481
 C        -4.3327718671        5.7387380439       -4.8108785886
 C        -5.4118573787        7.8704952269       -3.5060540400
 C       -11.1392087283        2.4356852432       -4.6783609280
 C       -11.2885797471        4.6056334364       -5.9713725557
 C       -12.4433529741        7.4344701844        0.3115278794
 C       -10.2997750591        6.3828752419        1.3207776240
 C       -16.0211709875        4.9696200718        6.2628332858
 C       -16.1794251730        7.5364805787        6.7529027430
 H       -15.5990887670        5.6138838236        9.2026273094
 H       -15.1653588682        7.3524756872        9.3303638365
 H       -13.9828384707        5.9789417186        9.8347372042
 H       -14.3845630315        5.1684657813        3.7652655199
 H       -13.2826476086        4.9169146458        5.2330037750
 H       -11.5136623759        5.7985828802        3.7823303927
 H       -12.4442345364        7.1912896816        3.5173138617
 H       -13.3989423331        5.6437466243       -1.3800416041
 H       -13.7469709961        4.1672735024       -0.5016780517
 H       -13.6908166913        3.5471743922       -2.6744509862
 H       -12.0614513439        2.9302821524       -2.1406853366
 H       -10.2955025562        6.5448830031       -3.8899596738
 H        -9.1539823295        5.9244573247       -5.2228923450
 H        -8.0200079662        6.3811602240       -2.5180495427
 H        -8.0496911817        7.5498588945       -3.7115737752
 H        -5.9212699275        3.4498509286       -3.2365656133
 H        -7.0181984858        4.3393908525       -2.1095616550
 H        -5.3053504990        3.6969909243       -0.2318550195
 H        -4.3067551625        2.9076482242       -1.3246275376
 H        -6.9612379806        1.0615099076        1.9791776710
 H        -6.3797719218       -0.4312098807        2.5147640492
 H        -8.7591825424       -0.3515079861        3.0760026864
 H        -8.3591238585       -1.6500461127        1.7894432412
 H       -10.0782481934       -2.5882173968       -2.3205739303
 H        -8.8446391220       -2.3744387747       -0.9625084111
 H        -8.5965025817       -1.5791277759       -2.5044703581
 H       -10.7946352400       -1.8416234685        1.9253954229
 H        -9.7861778614       -2.7791131689        0.9393541849
 H       -11.5180951026       -2.6582771205        0.4073051758
 H       -12.2360239818       -0.2357694686        1.4350706066
 H       -12.6838888743       -0.5417280296       -0.1803332869
 H       -11.8472008915        1.0747936280        0.2897396568
 H        -4.4420767539       -1.1503338257       -0.9558084307
 H        -3.9086490704        0.2638836686       -1.7271229772
 H        -5.3876397523       -0.4710910741       -2.2030603816
 H        -4.9367757417        1.7558398306        1.5509581935
 H        -3.6593735843        1.5334876031        0.2973169582
 H        -4.1063606520        0.1287890993        1.3058172788
 H        -4.4794673906        6.1799092782       -5.7978566730
 H        -4.5157539980        4.6888220183       -4.8201240055
 H        -3.2988963027        5.8822608016       -4.4084602325
 H        -6.1185524933        8.1606682745       -2.7672024924
 H        -5.5816494705        8.4842430982       -4.3919821468
 H        -4.4744161310        8.1786589533       -3.1306116125
 H       -10.1920022187        2.0076101620       -4.7580876205
 H       -11.8355177900        2.3374519721       -5.5721857549
 H       -11.5990017212        1.8505407684       -3.9442134833
 H       -10.3536106184        4.5203180272       -6.5744042929
 H       -11.5386214979        5.6376074871       -5.9661373907
 H       -12.0791126763        4.0579355540       -6.5150265159
 H       -12.4867362749        8.1291020400        1.1760894788
 H       -13.4984769226        7.3276894400        0.0491005705
 H       -11.8968851500        7.7538138292       -0.5794458013
 H        -9.7679585399        5.4269165702        1.5044714527
 H       -10.3422221836        7.0134601508        2.2449300684
 H        -9.7599523853        6.9544460335        0.4896153657
 H       -16.5944815696        5.0585588286        5.3667025197
 H       -16.7304561952        4.7639368164        7.0415589639
 H       -15.3767918252        4.1312213098        6.1935905071
 H       -16.6934930940        7.5317511819        7.7345212565
 H       -16.9173580338        7.5350014384        5.9731141836
 H       -15.6385046357        8.5032070191        6.6315410246
 Na       -9.6798788018        2.3719182180       -1.3578343244
