117

 C       -14.6153496648        6.3882759894        8.9959946021
 C       -14.2393268029        6.1710901030        7.4984834369
 O       -13.1229570544        5.7625635687        7.2723746265
 C       -15.2323574581        6.4729672168        6.3350423477
 C       -14.2903632822        6.9394226253        5.1607904673
 O       -14.3080258736        8.1183937172        4.8018093971
 C       -13.6212416025        5.8490559568        4.3937229423
 C       -12.7584897927        6.4536278019        3.2945265815
 C       -12.8069682444        5.6050500674        1.9903415711
 O       -13.4828083238        4.6188309558        1.8542341286
 C       -11.7677936734        6.0636296866        0.9252658367
 C       -11.5826350782        4.9607918192       -0.1630340917
 O       -10.5981980853        4.2524888566       -0.1268177515
 C       -12.7623946725        4.7893589128       -1.1315447713
 C       -12.5633304439        3.8301819959       -2.2963689330
 C       -12.2877501759        4.5893146729       -3.5719977930
 O       -12.9018770387        5.5898024351       -3.8861933663
 C       -11.0468898273        4.1315003797       -4.4624906699
 C        -9.7987786174        4.7887434048       -3.8744968399
 O        -9.1793319001        4.1358138458       -3.0234082479
 C        -9.4632222462        6.2433925570       -4.1422344801
 C        -8.1415566917        6.6354855664       -3.5477437553
 C        -7.0359136138        5.9174924464       -4.2369989686
 O        -7.2924213216        5.0445812155       -5.0838940051
 C        -5.5551382280        6.0679940746       -3.7134792979
 C        -5.4319292540        5.1926340692       -2.4091198298
 O        -5.0745850657        5.7082896379       -1.3786522806
 C        -5.7822440468        3.7129275512       -2.5140820676
 C        -5.4424124313        3.0175623413       -1.1990008105
 C        -6.0809551266        1.6366811589       -0.9911963878
 O        -7.2477902167        1.3467734574       -1.2811623723
 C        -5.2583589558        0.4902096134       -0.1827163953
 C        -6.4461224866       -0.3469658194        0.5088962882
 O        -6.8967710606       -1.3152565979       -0.0445046773
 C        -7.0882963767        0.1694185885        1.8171398893
 C        -8.5117614123       -0.3538526033        1.9907889214
 C        -9.4161546279        0.1899083727        0.9154806170
 O        -9.3957075890        1.3870859742        0.6803571459
 C       -10.5484397361       -0.6821879390        0.2805533795
 C       -10.2268843646       -0.6918617586       -1.2449119168
 O       -10.3302127201        0.3184920200       -1.9853696958
 C        -9.5371208026       -1.9316041242       -1.8705219965
 C       -10.7205834677       -2.0675512979        0.9847979398
 C       -11.8915046068        0.1989992593        0.5874076349
 C        -4.3987822448       -0.2810245340       -1.2201359286
 C        -4.2054387564        1.0604419088        0.8354318673
 C        -4.4909384332        5.3457747527       -4.6986850133
 C        -5.4335924695        7.5150377318       -3.2710517755
 C       -10.8669279959        2.5477167706       -4.4549019134
 C       -11.3962019267        4.4963404889       -5.9773437571
 C       -12.3256830519        7.3522945712        0.2253967518
 C       -10.3263852237        6.3879683744        1.4947756293
 C       -15.9579265493        5.1365688712        5.9934920318
 C       -16.2712364362        7.5422596337        6.7680783407
 H       -15.0057650947        5.5007797967        9.4430438720
 H       -15.3848686649        7.1938848658        9.1049043180
 H       -13.7213192783        6.5820406976        9.5178913583
 H       -14.4120972581        5.3205439633        3.9867921565
 H       -13.0334696999        5.2130207226        5.0312719120
 H       -11.7799846663        6.6796711395        3.6480975292
 H       -13.0465622673        7.5179324699        3.0547417166
 H       -13.0923761680        5.7685065347       -1.4793897238
 H       -13.5551722664        4.4388194956       -0.4626361763
 H       -13.5313830351        3.2974019902       -2.4416734227
 H       -11.7371969689        3.1536603484       -2.0403491117
 H       -10.2891436531        6.8741569984       -3.7218066480
 H        -9.4616120106        6.3117097984       -5.2303734572
 H        -8.0381361567        6.4767641139       -2.4460353288
 H        -8.0610884174        7.7351159164       -3.6121702945
 H        -5.2887077631        3.3435401275       -3.4030298808
 H        -6.8556355884        3.6441516985       -2.7261608287
 H        -5.4883314372        3.6545080317       -0.3208574065
 H        -4.3348955583        2.7226488490       -1.0947041620
 H        -7.1808162380        1.2611339231        1.8670214497
 H        -6.4754022494       -0.1231208691        2.7171530315
 H        -8.8698705916        0.0783661062        2.9203253441
 H        -8.4851024240       -1.4781535647        2.0257024512
 H        -9.7757404356       -1.9165346276       -2.9250011384
 H        -9.7011979761       -2.9188250562       -1.3371411992
 H        -8.5157272185       -1.6606067706       -1.6870320595
 H       -11.0990160997       -2.0497901393        1.9478135636
 H        -9.8195192158       -2.6708583883        1.0052737377
 H       -11.3007993696       -2.6643120448        0.3111551166
 H       -12.7401376273       -0.3456357905        0.1981820396
 H       -11.8669810912        1.1403763455        0.1198474763
 H       -12.0502091947        0.3368028231        1.7081592869
 H        -3.7612021011       -1.0917897687       -0.8132125775
 H        -3.6821630801        0.4900054769       -1.6297836132
 H        -4.8679315268       -0.7054776984       -2.0765104999
 H        -4.6473502962        1.7136930994        1.6010541374
 H        -3.4408152752        1.5112072151        0.2448775892
 H        -3.7450797144        0.1938047166        1.2006059440
 H        -4.5405456862        5.8471546012       -5.6260734164
 H        -4.8573228419        4.3353083693       -4.8396536141
 H        -3.4644939934        5.3884829700       -4.3148981150
 H        -6.2119869533        7.7823996734       -2.5200723193
 H        -5.6863920198        8.2065623329       -4.1142155244
 H        -4.4318465578        7.8148079207       -3.0082254531
 H       -10.5877336946        2.2936734177       -5.5014484652
 H       -11.8640745549        2.0501241056       -4.2075299688
 H       -10.0505608963        2.1523352294       -3.8943892011
 H       -10.5448876553        4.3009261926       -6.6727330110
 H       -11.5059266370        5.5193694185       -6.0627757707
 H       -12.2558626087        3.9204269696       -6.3026994981
 H       -12.2623088283        8.2259950838        0.8040996681
 H       -13.3694471402        7.2118492484        0.0508813040
 H       -11.8301300945        7.4234160935       -0.7512624532
 H       -10.0047016665        5.6509791743        2.1757375314
 H       -10.4278862198        7.3209466182        2.0201565818
 H        -9.6677209919        6.3065239571        0.6842401902
 H       -16.6172889304        5.2570455404        5.0962212155
 H       -16.6081597858        4.7641336999        6.8380926778
 H       -15.2457135314        4.3164851873        5.8895891844
 H       -17.0276935513        7.0445943402        7.3328896183
 H       -16.7584245610        7.9697518998        5.9047642808
 H       -15.8240092829        8.3280045440        7.4170515401
 Na       -9.6408014411        2.4733540220       -1.3997666772
