117

 C       -14.5656145583        6.5545044268        8.9889138391
 C       -14.1664616102        6.3381814345        7.5289740625
 O       -13.1464784553        5.7432773529        7.1760473748
 C       -15.3284314450        6.6309179083        6.4025999430
 C       -14.5152610599        7.0830533962        5.0721244581
 O       -14.4594734432        8.2716991334        4.8091886239
 C       -13.7855318574        6.0594965267        4.1678458675
 C       -13.1074115289        6.7335162008        2.9763377560
 C       -12.6004834612        5.7164723939        1.9226331100
 O       -13.0496897512        4.6139876487        1.9300554318
 C       -11.5610687919        6.2000573844        0.7245119935
 C       -11.4627909539        5.0522215203       -0.3557868960
 O       -10.4331258381        4.4989429411       -0.5815347906
 C       -12.8212498800        4.6072708717       -1.0137453367
 C       -12.5797908792        3.6240404616       -2.1835745374
 C       -12.5103007088        4.3103924997       -3.5837476219
 O       -13.3877460582        5.0838778737       -3.9074315114
 C       -11.0493270282        4.0694898070       -4.5692343910
 C        -9.8448628326        4.8803393966       -3.7608398332
 O        -9.2780814198        4.3731915345       -2.7774244770
 C        -9.5339070724        6.3536458895       -4.2463282590
 C        -8.1608308803        6.8235896510       -3.7419613247
 C        -7.1325379241        5.8007268799       -4.1875249036
 O        -7.4568416462        4.8789329204       -4.9293123098
 C        -5.6355748243        5.8822708790       -3.7253184631
 C        -5.5613095219        4.9815049434       -2.4911331876
 O        -5.2893899387        5.4827406908       -1.4358102912
 C        -5.8024110177        3.4415449514       -2.6339387681
 C        -5.2573432000        2.6212593964       -1.4446851356
 C        -6.0932419518        1.4261392142       -0.8860129947
 O        -7.2908777925        1.3847285624       -0.9883245231
 C        -5.3192593507        0.2852258280       -0.1058831162
 C        -6.3497038846       -0.6302404377        0.7326488665
 O        -6.5701051656       -1.7992028958        0.5193924931
 C        -7.0459066812        0.1265039776        1.9512328189
 C        -8.5309614421       -0.3253561147        2.1633294777
 C        -9.4109654551        0.2979555064        1.0425276303
 O        -9.3369048797        1.4487211646        0.7862908670
 C       -10.5712239220       -0.4922339495        0.3834011650
 C       -10.1855288451       -0.5600829070       -1.2692546072
 O       -10.0940832545        0.4804186317       -1.8692314681
 C        -9.9562072895       -1.8215521578       -2.0731853924
 C       -10.9136974017       -1.8323648877        1.0653248004
 C       -11.8599040984        0.3698531155        0.4233957167
 C        -4.4436702306       -0.5850348182       -1.0060435013
 C        -4.2833268616        1.0019370912        0.9273527298
 C        -4.7514973216        5.2657454516       -4.8297767593
 C        -5.3128420871        7.3377905649       -3.3383658126
 C       -10.6228088687        2.6600124426       -4.6337099869
 C       -11.3487316800        4.6640711396       -5.9539784625
 C       -11.9447205700        7.5356388018        0.0862768198
 C       -10.1589121051        6.2749526667        1.3057190842
 C       -16.0225185168        5.2985578678        6.1224362440
 C       -16.2905538683        7.7500072792        6.8403225288
 H       -15.4567857159        6.0604167798        9.1225173794
 H       -14.7074837521        7.6065798120        9.2644578145
 H       -13.8678746756        6.0739325240        9.6311395054
 H       -14.4860566090        5.3460483608        3.8263855394
 H       -13.0506516805        5.6071074917        4.8608889904
 H       -12.4009020133        7.4966488548        3.2853614068
 H       -13.8537631429        7.4864980744        2.5055888433
 H       -13.4198268233        5.4453703515       -1.4097232884
 H       -13.3793320546        4.1117322201       -0.2107407059
 H       -13.5181389522        3.0392951849       -2.2228424946
 H       -11.7576542782        2.9789066724       -1.9715584804
 H       -10.4378003462        6.9770860093       -4.0317409434
 H        -9.5680157119        6.2721747015       -5.2959792934
 H        -8.0703601669        7.0190211030       -2.6380540106
 H        -7.8570235868        7.7672495571       -4.2336548036
 H        -5.4699002295        3.0445539488       -3.5835397690
 H        -6.8707107962        3.4124438465       -2.7087203768
 H        -5.0184804896        3.2520535444       -0.5792191252
 H        -4.1664370974        2.1814558423       -1.7444376089
 H        -7.0351618295        1.1983138165        1.7947790159
 H        -6.4886061417       -0.1663055415        2.8674862918
 H        -8.9521685165       -0.0400589167        3.0888575146
 H        -8.4758849935       -1.4161503200        2.1334408421
 H        -9.5393681283       -1.5202697371       -3.0229998251
 H       -10.9386851672       -2.3651998940       -2.1555792668
 H        -9.2470045229       -2.3902409171       -1.5335463495
 H       -11.4512098692       -1.6173617050        1.9264234515
 H       -10.0886004922       -2.4688134203        1.2762583850
 H       -11.6436233335       -2.4224332229        0.4749012284
 H       -12.4558727594        0.2651311540       -0.4148380969
 H       -11.4634470100        1.3576164781        0.5196174101
 H       -12.5407495033        0.1359503108        1.2728498191
 H        -3.7253448253       -1.3115999530       -0.4465071432
 H        -3.8966892347        0.0600492239       -1.7239296784
 H        -4.9484544064       -1.1952889653       -1.7636783079
 H        -4.8024530000        1.6902132129        1.6128888436
 H        -3.5333310580        1.4888791695        0.4214584943
 H        -3.7694238647        0.1400837221        1.4727816352
 H        -4.4768918277        5.9524236757       -5.6252570977
 H        -5.3671018199        4.4612767722       -5.2179365224
 H        -3.8350177476        4.8232873976       -4.3529203782
 H        -5.9214058504        7.6519446523       -2.4645013721
 H        -5.4969675258        8.0963410608       -4.1608070295
 H        -4.2945311478        7.4339202191       -2.9820245959
 H       -11.4987475501        2.0675542130       -4.9142277609
 H       -10.2926583862        2.2087967605       -3.6143736501
 H        -9.7982894717        2.6297402477       -5.2807525076
 H       -10.4015079974        5.0359427968       -6.4689562894
 H       -12.0019169370        5.5189331559       -5.7693056110
 H       -11.8791038250        3.9141579271       -6.6188624017
 H       -12.0166802578        8.3803171511        0.7815851334
 H       -12.8585024053        7.3928281575       -0.4948915214
 H       -11.0788591361        7.8543506922       -0.5281713116
 H        -9.8044832290        5.2928044684        1.5229782036
 H       -10.2347289936        6.8714222101        2.2169392616
 H        -9.5463667195        6.7127583040        0.5119251383
 H       -16.4633576209        5.2170762963        5.1036600179
 H       -16.7675059297        4.9737945225        6.8891958559
 H       -15.2183123775        4.5711063489        6.0950897259
 H       -16.7458220337        7.5227292042        7.8180201061
 H       -17.0828796433        7.8428587347        6.1127726810
 H       -15.6316052310        8.6568713566        6.8895412463
 Na       -9.2071524592        2.6058420557       -1.3593725314
