117

 C       -14.4965240445        6.6158093587        8.9329505891
 C       -14.2481901403        6.2957701433        7.4905705713
 O       -13.1772957367        5.8106964992        7.1961079354
 C       -15.2373188934        6.6772407234        6.3481490784
 C       -14.5335566166        7.1699058121        5.0644172801
 O       -14.5715420543        8.3254603385        4.7966148872
 C       -13.8510341308        6.0881926233        4.1638172925
 C       -13.2027877692        6.7558380724        2.8875999114
 C       -12.6423522338        5.7791005789        1.8528839497
 O       -12.8812925084        4.5575544822        1.9131662174
 C       -11.5986434080        6.1825577362        0.7114722169
 C       -11.4645196243        5.0607517791       -0.3262618347
 O       -10.3787559541        4.5068442882       -0.5041852508
 C       -12.7752482081        4.5662111810       -1.0612446933
 C       -12.5132127968        3.5512533633       -2.2310923793
 C       -12.3760480230        4.3107821036       -3.5088236840
 O       -13.2664107757        4.9368234202       -3.9979299450
 C       -11.1091541496        4.2149408903       -4.3964486151
 C        -9.9734158792        4.9967623783       -3.7706371348
 O        -9.2437881080        4.4309933918       -2.9488665758
 C        -9.5603253940        6.3578907490       -4.2085659351
 C        -8.1767923395        6.7408288829       -3.7142344831
 C        -7.1375321152        5.6894071602       -4.2831005444
 O        -7.5288805436        4.7575787498       -4.9349297181
 C        -5.6886566204        5.8497743254       -3.7539678275
 C        -5.6256898243        4.8968689572       -2.4180724381
 O        -5.3441458065        5.3504898627       -1.3358058042
 C        -5.8942644968        3.3752420559       -2.6420819425
 C        -5.1895995019        2.5321991287       -1.5369534721
 C        -6.0198047051        1.3828928805       -0.9113650063
 O        -7.2152624735        1.3237594842       -0.9591793029
 C        -5.2768940949        0.2265117785       -0.0758901266
 C        -6.2905947121       -0.5978809287        0.8092732693
 O        -6.4817484372       -1.7783829468        0.6071277351
 C        -7.0284943250        0.1019519426        1.9456354146
 C        -8.5165712604       -0.2975891658        2.1814911300
 C        -9.4360338595        0.3223935229        1.0807673336
 O        -9.2303757375        1.5181941275        0.8679455924
 C       -10.6708823531       -0.4766999146        0.2733698485
 C       -10.1899991163       -0.5018144239       -1.2537010110
 O        -9.9291771443        0.5114286254       -1.8341404787
 C       -10.0836266787       -1.8503815001       -2.0006774268
 C       -11.0703722699       -1.8283651726        0.8928144990
 C       -11.8834854869        0.4637802253        0.4405997892
 C        -4.4908499023       -0.7275244940       -0.9355843953
 C        -4.3300598293        0.9276893342        0.9677794382
 C        -4.6551309240        5.3135931453       -4.7368280883
 C        -5.3745034989        7.3819887596       -3.6334216392
 C       -10.6253197297        2.7061919245       -4.5920685069
 C       -11.4652751629        4.7075841992       -5.8413635250
 C       -11.9328514081        7.5230644782       -0.0239600362
 C       -10.0670423711        6.2662499418        1.3728318832
 C       -15.9795219822        5.3294907682        6.0603429286
 C       -16.2198984879        7.7860002599        6.8579067667
 H       -15.5291993689        6.5682532136        9.2044402496
 H       -14.1413920786        7.5904188035        9.0806340217
 H       -13.9366275566        5.9068056759        9.5733206570
 H       -14.6309022119        5.4512705965        3.8675739363
 H       -13.1565618900        5.5489796613        4.7596823046
 H       -12.3572300928        7.3830662608        3.2170970614
 H       -13.8337180897        7.5719628892        2.5002745543
 H       -13.4021796821        5.3751927912       -1.4651534730
 H       -13.2979422921        4.0548513655       -0.2763422872
 H       -13.4746102141        2.9697599258       -2.3041115922
 H       -11.7002186424        2.8670303442       -1.9984487526
 H       -10.3948278604        7.0095169834       -3.8182266993
 H        -9.7527623776        6.3834797297       -5.2492638437
 H        -8.2194426936        6.7101178682       -2.5978637374
 H        -7.9117688987        7.7656522441       -4.0089481459
 H        -5.6217157197        3.1288114926       -3.6823578285
 H        -6.9844678884        3.2968203482       -2.6394543865
 H        -4.9546166613        3.2061656199       -0.7081406581
 H        -4.1789748688        2.0632474910       -1.8073368575
 H        -7.0716098932        1.2044917943        1.7631810873
 H        -6.5527592195       -0.1293784960        2.9021734867
 H        -8.7922438955        0.1747462699        3.1699825098
 H        -8.5850687068       -1.3837708466        2.3440254784
 H        -9.8629770476       -1.6282417690       -3.0653409762
 H       -11.0366002150       -2.3376644044       -1.8519862065
 H        -9.2264710693       -2.4462921388       -1.6143160231
 H       -11.5172096254       -1.7785437984        1.8701034850
 H       -10.2588238104       -2.4597874926        0.8334103439
 H       -11.8858405339       -2.2477347291        0.3099002403
 H       -12.7698690451        0.0399323021        0.0440130162
 H       -11.5891364786        1.4582468616        0.0117724945
 H       -12.1005128203        0.5811411080        1.4629964188
 H        -4.1103332545       -1.5837952577       -0.3497121075
 H        -3.6898098069       -0.2580873774       -1.4740875648
 H        -5.0265146219       -1.1415399596       -1.8444217112
 H        -4.7880522427        1.3373908713        1.8002187814
 H        -3.7977396004        1.7729007804        0.4841824823
 H        -3.5435668012        0.2029419980        1.2814103618
 H        -4.6309672868        5.9492782645       -5.6555407195
 H        -4.8973464716        4.3233755025       -5.0184701240
 H        -3.6829416187        5.3395913363       -4.2427081131
 H        -5.8849442566        7.8463370521       -2.7717527516
 H        -5.5995126734        7.9900560077       -4.5579666968
 H        -4.2938370056        7.5151030324       -3.3132410360
 H       -11.5021688014        2.0746825315       -4.4884451207
 H        -9.8914546788        2.3428952241       -3.8876762974
 H       -10.0881897908        2.7314327187       -5.5709348345
 H       -10.5503890356        4.9203395027       -6.3414157028
 H       -12.2219965549        5.5575482943       -5.9421162384
 H       -11.9209525824        3.8305508446       -6.3101773990
 H       -11.8952655323        8.3261129140        0.7381751399
 H       -12.8509373709        7.5290385744       -0.5732596614
 H       -11.1126103501        7.8098652388       -0.5936951894
 H        -9.7734722934        5.2869018847        1.6730972868
 H       -10.1659005094        6.8786978234        2.2198525023
 H        -9.3849588653        6.7135023159        0.6419281318
 H       -16.5230119978        5.3573001396        5.0738383517
 H       -16.7058605628        5.1247147909        6.8800836110
 H       -15.2628367574        4.4527586919        5.9340216019
 H       -16.8540332015        7.3761538376        7.6845690532
 H       -16.8563614045        8.0354419750        6.0254864084
 H       -15.6313750342        8.6330803125        7.1546544455
 Na       -9.2880629203        2.7021299578       -1.2601339290
