117

 C       -14.3610667484        6.7418194598        8.7631575127
 C       -14.1184250023        6.3795684982        7.3021343842
 O       -13.0805414238        5.7621143368        7.1090796244
 C       -15.2681691005        6.7420778493        6.2140982607
 C       -14.5545936001        7.2139696167        4.9247264789
 O       -14.6095915291        8.4092140925        4.6480481254
 C       -13.8571843201        6.2152112436        3.9751488086
 C       -13.2025584385        6.8395336188        2.7755609762
 C       -12.6424268089        5.7200168547        1.8675103381
 O       -12.8123840594        4.5637226571        2.0949822157
 C       -11.5963119878        6.2108964509        0.8287670602
 C       -11.4040005918        4.9872918851       -0.2717982393
 O       -10.3438283967        4.4582777787       -0.2836175958
 C       -12.6593566341        4.4854892769       -0.9927713657
 C       -12.3124999257        3.5779020788       -2.1396584469
 C       -12.3791809852        4.2636735353       -3.5164514559
 O       -13.3987978724        4.8863111470       -3.8107127024
 C       -11.1565812978        4.1026647554       -4.5297347741
 C        -9.9588713628        4.8460909514       -3.8074009714
 O        -9.3353903943        4.4183826073       -2.8599584909
 C        -9.5555835441        6.3696973858       -4.1147470137
 C        -8.0770519132        6.6478401548       -3.8661627669
 C        -7.0773920217        5.5867209307       -4.3399749309
 O        -7.4735215269        4.6899136808       -5.0942278302
 C        -5.6775278272        5.6912833125       -3.7752386281
 C        -5.6425744380        4.8340653406       -2.4772629747
 O        -5.4575437441        5.3617778984       -1.4229237703
 C        -5.9886715187        3.3097716171       -2.4865068398
 C        -5.1006532121        2.4454478173       -1.6132360234
 C        -5.9700130277        1.3490408501       -0.8218031580
 O        -7.1698679876        1.2806357545       -1.0135093262
 C        -5.2382274584        0.2648875789        0.0617097975
 C        -6.2951005853       -0.5381491152        0.9288398902
 O        -6.4904905711       -1.7014475778        0.7065970091
 C        -7.1311570147        0.1509143583        1.9699933730
 C        -8.6072395049       -0.5002755715        1.8966784351
 C        -9.4876891061        0.4031591379        1.0450444982
 O        -9.2714584616        1.5686814586        0.9205099429
 C       -10.6665132002       -0.3117414270        0.3210689452
 C       -10.1519918406       -0.3813283737       -1.2083288487
 O        -9.8021864363        0.5440270033       -1.9106658144
 C       -10.2705030409       -1.7667263604       -1.8997776585
 C       -10.9881805253       -1.6648661899        0.9666533772
 C       -11.8630862531        0.7543495644        0.3106042822
 C        -4.5910444255       -0.7030745818       -0.9560100115
 C        -4.1536032423        0.8393599163        0.9370969907
 C        -4.6851061610        5.0823770140       -4.7934884019
 C        -5.3541355794        7.1098661207       -3.3914964135
 C       -10.7477624649        2.6299863824       -4.6165865526
 C       -11.4852613512        4.7490116514       -5.9238065029
 C       -12.0027467212        7.4752652591        0.0692460934
 C       -10.2825401926        6.4843271995        1.5783422667
 C       -16.0440230852        5.4788597633        6.0171152054
 C       -16.2387755064        7.8068261917        6.7627097665
 H       -15.3882836052        7.0776196069        8.9704751835
 H       -13.5557974199        7.5309598089        9.0691450911
 H       -14.1458205178        5.8522120220        9.3639205420
 H       -14.6108977861        5.4204177950        3.6692937672
 H       -13.0597664109        5.6840034760        4.5686281331
 H       -12.4709936664        7.5528975554        3.1510161470
 H       -13.9146032322        7.4466862310        2.2199690806
 H       -13.2352317916        5.3333337542       -1.3568164454
 H       -13.2534778541        3.9374359861       -0.2195944703
 H       -12.9695845408        2.7246037431       -2.0656610513
 H       -11.3102795493        3.2172586360       -1.8698329880
 H       -10.2556568260        7.0146956548       -3.6221838617
 H        -9.7856060833        6.5935324691       -5.1836203846
 H        -7.9659283304        6.8872828596       -2.8204986775
 H        -7.7873147535        7.4898509861       -4.4972232905
 H        -5.9924099429        3.0220956323       -3.5429484406
 H        -7.0654255800        3.2484945748       -2.1991487638
 H        -4.5721739264        3.0766362128       -0.9128226816
 H        -4.4137753694        1.8050744206       -2.2120893407
 H        -7.3083873282        1.1839401444        1.7913181218
 H        -6.7153825551       -0.0401487911        2.9712855851
 H        -8.9975040756       -0.5816570714        2.9166590772
 H        -8.5554671250       -1.5587679192        1.5585182495
 H       -10.0851092113       -1.6876186383       -2.9587166577
 H       -11.3173069184       -2.0706348576       -1.6538278555
 H        -9.5120503962       -2.4066268344       -1.5139315174
 H       -11.1168094666       -1.6009256969        2.0536720600
 H       -10.0512917739       -2.2761961570        0.7411975150
 H       -11.9628254609       -2.1333741261        0.6974355870
 H       -12.7676966330        0.2818411595        0.7362896579
 H       -12.0237261345        1.0765318014       -0.6968950628
 H       -11.6351375849        1.6544649325        0.9999266160
 H        -4.3755226428       -1.6310882916       -0.4537951607
 H        -3.6323603957       -0.3711870963       -1.2945635804
 H        -5.0763643616       -0.8975443759       -1.8236757497
 H        -4.5355614019        1.5602307891        1.7975328329
 H        -3.4474721826        1.4218466403        0.3920437554
 H        -3.6613630669        0.0042542707        1.5412268553
 H        -4.9240166955        5.4015662198       -5.7670881731
 H        -4.7429027760        3.9789285594       -4.8162411223
 H        -3.6735083192        5.3823111299       -4.5253756319
 H        -5.9251221788        7.4664296178       -2.5420816554
 H        -5.5679169529        7.7019118545       -4.2516496921
 H        -4.3898924089        7.2911410518       -3.0511238723
 H       -11.5929022181        2.0157085349       -4.3764841602
 H        -9.9368103122        2.4183069561       -3.8739627026
 H       -10.2594032800        2.5022598040       -5.4984350068
 H       -10.8056263154        4.3556951370       -6.6952982500
 H       -11.4228140767        5.7588466158       -5.8093932769
 H       -12.5275403133        4.6810815003       -6.1518512846
 H       -12.0112643199        8.3388306746        0.6777338228
 H       -13.0309438007        7.2270216052       -0.1929402339
 H       -11.4663295043        7.7977018257       -0.8594560799
 H       -10.2077823927        5.6836099819        2.3215088122
 H       -10.3531589970        7.5136967316        2.0445596002
 H        -9.4821380578        6.5566045098        0.8467607840
 H       -16.9148225617        5.6340629000        5.4101025917
 H       -16.3464831360        5.0300758660        6.9525873098
 H       -15.4548649403        4.8112944875        5.4667071125
 H       -16.9131869194        7.2965090308        7.3799130523
 H       -16.7211764308        8.2781063864        5.9124926181
 H       -15.6438331362        8.5677678845        7.2861715642
 Na       -9.2768888594        2.6636520867       -1.1357750388
