117

 C       -10.8818377191       -6.1170410122        3.1469981445
 C       -10.2868523399       -5.3931507223        1.9248398173
 O       -10.0167255633       -5.8709068213        0.8226226512
 C        -9.9140210086       -3.9125950996        2.1174557479
 C       -10.8881940753       -3.1366863349        1.0392714784
 O       -10.4273376263       -2.2336605105        0.4369776482
 C       -12.3957715865       -3.4778785532        1.0620074929
 C       -12.9683404782       -3.2935800311       -0.3534122038
 C       -12.5245683421       -1.9756556792       -1.2413583608
 O       -11.8789939045       -2.2480504627       -2.2545935047
 C       -12.9986248774       -0.5387848043       -0.7523522413
 C       -11.7813454339        0.4960471043       -0.4849023847
 O       -11.9190007109        1.3132887281        0.3689287670
 C       -10.5101333805        0.4052807395       -1.4489216004
 C        -9.2910958661        1.0850635444       -0.6686854090
 C        -8.9800710520        2.4578741011       -1.1391060879
 O        -9.0450116943        3.3625502320       -0.2875556539
 C        -8.5743586832        2.7511696985       -2.6691527280
 C        -9.8252411550        3.6099100188       -3.2497652858
 O       -10.9106463760        3.5209878744       -2.7536065921
 C        -9.6573836820        4.2202665185       -4.6277286762
 C       -10.1894053895        5.6754633720       -4.6253127178
 C        -9.7480217691        6.4447338905       -3.3083023741
 O        -8.9875194333        5.9115756923       -2.5295061625
 C       -10.5334860160        7.7713690424       -2.9035712192
 C       -10.0601577055        8.4726275852       -1.5043646880
 O        -9.5134519253        7.8677927854       -0.5962887024
 C       -10.2752282689        9.9444769756       -1.4917504611
 C        -9.7741196725       10.6827288285       -0.2013016481
 C       -10.6668680924       10.2434068824        1.0022867483
 O       -11.7397623077        9.7124240869        0.8865221049
 C        -9.9330501683       10.5621806438        2.4104763559
 C        -8.8670896851        9.3961984525        2.6616030519
 O        -7.7512180011        9.6175180817        2.2143233283
 C        -9.1867244302        8.2467416899        3.5039239767
 C        -7.9237582556        7.2288036494        3.6682705370
 C        -7.9631523534        6.2038271958        2.5971199235
 O        -9.0227839290        6.0052859488        2.0025473491
 C        -6.5916677184        5.4093049643        2.3008622615
 C        -5.9152369962        5.6149213809        0.9371034484
 O        -6.5481863546        5.3389037145       -0.0702956509
 C        -4.4161271236        5.8775912737        0.7662318236
 C        -5.5524797356        5.4924138342        3.4697929722
 C        -7.1273383490        3.8883712563        2.2047076254
 C        -9.3075147655       11.9271548776        2.2988762539
 C       -11.0104677591       10.6123977576        3.4432545933
 C       -10.6963526172        8.6912185938       -4.0654783059
 C       -11.9791200691        7.3080097758       -2.5646379847
 C        -7.2288086629        3.6611391896       -2.6431544961
 C        -8.2697097456        1.5390924488       -3.5569220816
 C       -13.7664237791        0.1111708469       -1.9481623556
 C       -13.9729010617       -0.5925096635        0.3995216878
 C       -10.1691856479       -3.2500121531        3.5037932625
 C        -8.4309355299       -3.7235251024        1.7051663388
 H       -10.1388761011       -6.3380746603        3.8850575383
 H       -11.3065135507       -7.0889242493        2.7670088099
 H       -11.8154397639       -5.5688106918        3.4407203663
 H       -12.9188806037       -2.9089902399        1.8241588860
 H       -12.5705802931       -4.5997239954        1.4301506648
 H       -14.0753102527       -3.3682525706       -0.3175906901
 H       -12.4936513022       -4.1523906293       -0.9129262318
 H       -10.6214290907        0.8662484178       -2.4126367684
 H       -10.3167904155       -0.7142741866       -1.5901062093
 H        -8.3396838897        0.5219502545       -0.6228934958
 H        -9.5235608087        1.1107671278        0.4003406989
 H        -9.8972104907        3.7788345070       -5.5894466884
 H        -8.6205466204        4.3173234592       -4.7255343612
 H       -11.2149812498        5.6280740264       -4.5623106826
 H        -9.9552737513        6.1799752774       -5.5556228998
 H       -11.2810075603       10.1416594608       -1.6890683574
 H        -9.7999164026       10.4215105256       -2.3422513102
 H        -9.9963271079       11.8221541493       -0.3195062554
 H        -8.7259631154       10.6804671872        0.0064419831
 H       -10.0869080476        7.7721049399        3.0838501371
 H        -9.4923383831        8.6625889330        4.5306921034
 H        -8.0592252090        6.6970121444        4.5945757223
 H        -6.9896682357        7.7577859701        3.8552954927
 H        -4.2483934035        6.8364571377        1.0904296151
 H        -4.2386549420        6.0440174063       -0.3728480537
 H        -3.6859626277        5.2028644462        1.2165217913
 H        -6.0110932190        5.4073237877        4.4461397938
 H        -5.0166196956        6.4358736823        3.5122249457
 H        -4.8431666247        4.6874287729        3.4302839238
 H        -6.3746227503        3.0821506224        2.0824048202
 H        -7.8156950212        3.8743039855        1.3566037849
 H        -7.5128994766        3.7226619563        3.2309244742
 H        -9.0923845094       12.1103653100        3.3357273853
 H        -9.8717728834       12.7198399450        1.7810108210
 H        -8.3751940485       11.9311864029        1.8008358057
 H       -10.5372802444       10.4251165200        4.3781732274
 H       -11.8125836893        9.8859979544        3.1150234063
 H       -11.4399485359       11.5508792804        3.3633642324
 H       -11.1003022342        8.1984413477       -4.9992926337
 H        -9.8003371457        9.2640970644       -4.3906829687
 H       -11.4105806703        9.4965532073       -3.9299255254
 H       -12.6597964100        7.2276686923       -3.4463208164
 H       -12.6232621423        7.9796320411       -1.9366086639
 H       -11.8233959169        6.2808325229       -2.0809660649
 H        -6.7928300667        3.9796833010       -3.6619886175
 H        -6.4178788043        3.1413978442       -2.1836991057
 H        -7.3374522620        4.5889553308       -2.1183786846
 H        -9.1631144535        0.8985807228       -3.7140014416
 H        -7.5915653375        0.8651563672       -3.0789565076
 H        -7.7243443160        1.8779576438       -4.5078456087
 H       -14.0618827717       -0.6252866803       -2.6863006845
 H       -13.1182856626        0.7623500695       -2.5303572104
 H       -14.5615520157        0.6849771679       -1.4963238546
 H       -14.9288473114       -1.0727209969        0.0369467236
 H       -14.1356077133        0.4727988943        0.5922574720
 H       -13.6560169000       -1.1984970474        1.2728077154
 H       -11.2302565366       -3.0556348272        3.7538543762
 H        -9.7528781523       -2.2783881251        3.4536266129
 H        -9.7038317257       -3.8246314090        4.3035801331
 H        -8.3951093824       -2.8420310068        1.0096398171
 H        -7.8992151897       -4.5985097439        1.3068861678
 H        -7.8753081099       -3.5103998814        2.7013365138
 Na       -8.9012444790        5.5429238954       -0.3295816738
