117

 C        -5.8231938595       -4.6999901896        4.7490754572
 C        -6.0967048050       -5.4302013691        3.3628812664
 O        -5.4418043338       -6.3825785779        3.0733328510
 C        -7.0815657124       -4.7028162930        2.2358222205
 C        -8.3705062052       -4.3263501569        3.0568190367
 O        -9.0038728351       -5.1191079074        3.7544251309
 C        -8.9463547951       -2.8929773346        2.9208289522
 C       -10.0849321765       -2.7673366880        3.9018756702
 C       -11.1174628890       -1.7215760289        3.5554065740
 O       -11.9521999355       -1.8638509717        2.6848100087
 C       -11.1931315380       -0.4094298502        4.4678062836
 C       -10.1474823269        0.6355484118        3.8959655169
 O        -8.9789955726        0.6226813442        4.2142785183
 C       -10.5956456180        1.4614489229        2.6646070605
 C        -9.3078643076        2.0749315073        1.8921586630
 C        -9.7688407070        2.9130347166        0.7066598172
 O        -9.6678259991        4.1081783090        0.7325975678
 C       -10.5382588380        2.2228566442       -0.4906254309
 C       -12.0667600509        2.6335071546       -0.4167653141
 O       -12.6310733175        2.6508616948        0.6356785936
 C       -12.8233179768        2.6705321395       -1.7820955329
 C       -13.6673089758        3.8808507899       -2.0605149464
 C       -12.8315703206        5.1004222536       -1.9161525094
 O       -11.7751656837        4.9926141101       -1.3699750024
 C       -13.2787097950        6.4983788922       -2.3179397733
 C       -12.1218003554        7.1199750706       -3.1998881563
 O       -10.9155549906        7.1806632564       -2.8638760561
 C       -12.4599774305        7.6653058115       -4.5875391907
 C       -11.4240864515        8.6230839398       -5.0508650088
 C       -10.9890057593        9.8339045776       -4.1534506280
 O       -11.6462973905       10.0165196024       -3.1351458873
 C        -9.7092460654       10.6689788578       -4.3023938382
 C        -8.8125477541       10.1820994010       -2.9133305192
 O        -7.7434725357        9.6200935119       -3.0675524153
 C        -9.2859551977       10.4321582153       -1.4993272280
 C        -8.2366066890       10.0479129037       -0.4186627803
 C        -8.2031777991        8.5269586453       -0.1115829928
 O        -9.2196154898        7.8977782488        0.1917671116
 C        -6.9071318006        7.6803424042       -0.1091386294
 C        -6.8223823715        6.8529360411       -1.4210481005
 O        -7.7593877505        6.0661724433       -1.5369993705
 C        -5.6643465551        6.7847332100       -2.4068289957
 C        -5.6027018535        8.5940550911       -0.1354108878
 C        -6.8116716761        6.6593917418        1.0269768379
 C        -8.7946386486       10.3978969558       -5.5627689491
 C       -10.0475424664       12.1786693944       -4.1822153175
 C       -14.6883523461        6.5848128178       -3.0816479711
 C       -13.1618089794        7.2273192123       -0.9335183799
 C        -9.7617927781        2.6788063743       -1.7163167511
 C       -10.5734265079        0.6656668695       -0.4376514105
 C       -12.6381968148        0.1577559842        4.3444576117
 C       -10.8770631122       -0.6186036995        5.9775656543
 C        -6.2212977957       -3.6460059858        1.4274554889
 C        -7.5922396075       -5.9491212431        1.3421661418
 H        -6.2879336420       -3.7501584248        4.7228047372
 H        -4.7503685635       -4.4329322452        4.8244135992
 H        -6.1175749870       -5.2743469191        5.5861785242
 H        -9.2121384279       -2.5673241829        1.9720313929
 H        -8.3344473410       -1.9459926415        3.1031312887
 H        -9.6729248561       -2.5612951410        4.8522423835
 H       -10.6533064873       -3.6954293541        3.9877328820
 H       -11.3287792465        2.2186582605        2.8272806520
 H       -11.1526843200        0.8569226625        2.0082363705
 H        -8.6613164969        1.2538947562        1.5326239306
 H        -8.6271565479        2.8024503369        2.4740939147
 H       -13.3371447469        1.6643511998       -1.8733033295
 H       -12.0419939672        2.6652439091       -2.6298226130
 H       -14.5645673326        3.9672591372       -1.2906371605
 H       -14.0233058520        3.6881276160       -3.0597315789
 H       -13.4125041772        8.1614342914       -4.5949600978
 H       -12.4501311804        6.9791649435       -5.3262017061
 H       -11.7169712845        8.9246176652       -6.0242881380
 H       -10.5307055013        8.0056456573       -5.3062891675
 H       -10.2251529889       10.0127967350       -1.2531589107
 H        -9.4273492597       11.5388642482       -1.3660038702
 H        -8.5692635147       10.5419959762        0.4974176768
 H        -7.2843814376       10.3648746653       -0.7040656067
 H        -5.4074277587        7.7681665611       -2.9413662717
 H        -5.8374180879        6.1194720934       -3.2141701386
 H        -4.8366263163        6.4447924234       -1.7719427609
 H        -5.5945805355        9.0822325896        0.7950160259
 H        -5.5212551353        9.3900671083       -0.8989125578
 H        -4.6252650642        8.0743574822       -0.1414140421
 H        -7.3214531002        7.0943436621        1.8903362929
 H        -5.7662102092        6.4706722520        1.3648561750
 H        -7.4877487035        5.8339063778        0.8589273351
 H        -7.8263022478       10.1751458988       -5.0951125035
 H        -8.7131028836       11.2515633561       -6.2393272554
 H        -9.0634276292        9.5757946107       -6.1459536601
 H        -9.1640140030       12.6953759263       -4.2102962370
 H       -10.6265774355       12.3841993648       -3.2206289782
 H       -10.6222557193       12.5150661943       -5.0215458232
 H       -15.4785459570        6.0057480697       -2.5567531047
 H       -14.7232580144        6.3231828148       -4.1293520029
 H       -14.9745500977        7.7074762739       -3.1521869347
 H       -13.9453373328        6.7284149478       -0.2435003691
 H       -13.3136255194        8.3779566344       -0.8650928710
 H       -12.2127256658        6.8676334332       -0.4157553109
 H       -10.2597587907        2.6464969026       -2.6691841489
 H        -8.7220942272        2.1048206717       -1.7494101068
 H        -9.4056133325        3.6996909634       -1.6559085005
 H       -11.5312103588        0.4516808928       -0.0268583035
 H        -9.8220791269        0.1489094623        0.0503579347
 H       -10.5118860383        0.3304265879       -1.4704500997
 H       -13.4060494128       -0.3180002657        4.9894908700
 H       -13.0204006934        0.2839503949        3.3426797460
 H       -12.6190900796        1.1889858491        4.6551517846
 H       -11.1796177737       -1.5817576394        6.3666679494
 H       -11.4273060240        0.1346569602        6.4640764650
 H        -9.8156503131       -0.5951521196        6.2074441486
 H        -6.2098627057       -2.7084642439        2.0395100221
 H        -6.5598213746       -3.5048216254        0.4030326261
 H        -5.2471199621       -4.1226009976        1.1658299162
 H        -7.6645059726       -6.7798904678        1.9730849145
 H        -6.9614588680       -6.1585228617        0.5126598389
 H        -8.5864907500       -5.8369508076        0.9606230409
 Na       -9.7527408013        5.9860066880       -0.8018227892
