117

 C       -15.4710355451        2.0778543222        3.6944521852
 C       -14.7615411328        3.3526282169        4.2256301863
 O       -15.0959509680        4.4020325685        3.7006564030
 C       -13.7426582422        3.2370309420        5.4305496866
 C       -12.4844982534        4.0149345534        4.8401750802
 O       -11.6101915086        3.3583678217        4.4087240447
 C       -12.4714799773        5.5747338585        4.7068225700
 C       -11.3179900433        6.0096020438        3.7723181458
 C       -10.5906072203        7.2031019527        4.4893115469
 O       -11.2129406589        8.1215827712        5.0046646137
 C        -9.0218095423        7.3699181875        4.2766494810
 C        -8.7501914227        7.3676075979        2.7506048735
 O        -8.8650356790        6.3326860111        2.0916282072
 C        -8.5467734454        8.8027485564        2.0681410822
 C        -8.1070976137        8.5749378874        0.6529914103
 C        -6.7050637040        7.9181788894        0.5769733619
 O        -5.8496010322        8.0431562953        1.4805750611
 C        -6.2321197463        7.3903536831       -0.8222329457
 C        -6.6718642167        5.8575796475       -0.9584501101
 O        -7.2039397430        5.5119889110       -1.9906333572
 C        -6.0953731241        4.9806239342        0.2168319044
 C        -7.1625755188        4.0672761445        0.8897502753
 C        -7.1665294883        2.6958909837        0.2304505551
 O        -6.4784897382        2.4472433329       -0.7578940177
 C        -8.0292974110        1.5363272454        0.7813788641
 C        -9.3883037508        1.4584376811       -0.0291440257
 O        -9.4312775493        1.4825778319       -1.2644202853
 C       -10.7012445094        1.3201357114        0.7219963326
 C       -11.8694977185        2.0628861842       -0.0293160303
 C       -12.1326113419        1.6380463944       -1.4543090427
 O       -12.0157702963        0.5122648201       -1.9040241068
 C       -12.4111840253        2.7776155591       -2.5385759656
 C       -10.9900862894        3.0697677264       -3.2026109702
 O       -10.2467034386        3.7268075192       -2.4706772105
 C       -10.5871024178        2.6438134901       -4.5944869713
 C       -10.0306802735        1.1354447001       -4.7142290304
 C        -8.4701605424        1.1147050278       -4.8402691449
 O        -7.6411627086        1.8836334926       -4.4265099759
 C        -7.9299250963       -0.2645555206       -5.5542655033
 C        -8.7478922654       -0.7601100786       -6.7770504172
 O        -9.3778924436       -0.0334606779       -7.5185724496
 C        -8.5473748943       -2.2109470232       -7.2305747699
 C        -6.5240256715       -0.0226978305       -6.0943392191
 C        -8.0909067343       -1.3565025347       -4.4822328516
 C       -13.3905616261        2.1522749440       -3.6233382344
 C       -13.0112804821        4.1179857816       -2.0955194135
 C        -7.3918056877        0.1935802724        0.4293444152
 C        -8.2284175243        1.6734056210        2.2466291231
 C        -6.8076543765        8.1710246605       -2.0110547325
 C        -4.6341909327        7.2331368561       -0.9010085033
 C        -8.5183962468        8.5819710178        5.1432817147
 C        -8.3744789312        6.1169401107        4.9691872148
 C       -14.3665281809        4.0344866191        6.5939615089
 C       -13.2900283280        1.8150589307        5.8266029126
 H       -15.6401785766        1.3114841850        4.4123770513
 H       -14.8671510378        1.7719294481        2.8697397217
 H       -16.3884496558        2.4411578435        3.2157578931
 H       -12.4476979912        5.9174877754        5.7773270187
 H       -13.4216863793        6.0612442097        4.4614900049
 H       -11.6001362544        6.3872924233        2.7642512470
 H       -10.7299935035        5.1487672247        3.6218466731
 H        -7.9179472108        9.4497384779        2.6287999799
 H        -9.5190884031        9.3151802487        1.9088566912
 H        -7.9991332171        9.4860000927       -0.0123549102
 H        -8.6711496376        7.8186651609        0.1358056024
 H        -5.7184699397        5.7061529642        0.9312335784
 H        -5.2850281861        4.3752235470       -0.2595367142
 H        -8.1833070746        4.5349391758        1.0150989235
 H        -6.7801063694        3.9816606276        1.8937238554
 H       -10.6799977021        1.7160386931        1.7339381241
 H       -10.9039442875        0.2119832595        0.7766898380
 H       -11.4801640350        3.1216412548       -0.1489524508
 H       -12.8646950215        2.1297202098        0.5454208383
 H        -9.7847873178        3.2944171379       -5.0554836591
 H       -11.4972859199        2.7507742543       -5.2345340936
 H       -10.3729338463        0.5162963286       -5.5599904477
 H       -10.1596086035        0.5453245174       -3.7956091327
 H        -8.7949103805       -2.4143739372       -8.2202994077
 H        -9.1843492080       -2.8468809635       -6.5442943635
 H        -7.5377696043       -2.5657551352       -7.0185562846
 H        -6.5298405787        0.7809618846       -6.8949961548
 H        -6.1247427442       -0.9360583854       -6.5436507439
 H        -5.8779755796        0.1984238575       -5.2346756070
 H        -9.1357471614       -1.6392640947       -4.3785831233
 H        -7.8673289796       -0.9610192485       -3.4648590837
 H        -7.4510809814       -2.1738121382       -4.7200779183
 H       -14.3549296244        2.0246500149       -3.0656052270
 H       -13.0494290563        1.2129243259       -3.9819390904
 H       -13.5598285648        2.8276358703       -4.4384369778
 H       -13.2978200173        4.7182807012       -2.9499114961
 H       -12.2427234756        4.7136748112       -1.5560802410
 H       -13.9367001939        4.0311101284       -1.5362413359
 H        -7.1393525498        0.0424273436       -0.6433756909
 H        -7.9553908283       -0.6159694808        0.9045328124
 H        -6.4064725512        0.1192301822        0.8738913828
 H        -7.3063384575        1.7700340206        2.6971032179
 H        -8.5713202278        0.7134369561        2.7325163124
 H        -8.9684693290        2.4861536641        2.5353919710
 H        -6.6889513392        7.5816346788       -2.9457027147
 H        -6.1361457079        9.0389698873       -2.1855829597
 H        -7.7766142221        8.6631729242       -1.7771862417
 H        -4.1953214909        7.2776014186        0.0712286018
 H        -4.1971714728        8.0848873800       -1.4813929885
 H        -4.2262746973        6.3179395102       -1.2476114196
 H        -8.7795551827        8.3469172627        6.1691957750
 H        -9.1322891690        9.4303990683        4.8251869866
 H        -7.4374031131        8.8166356419        4.9586902382
 H        -8.7895664476        6.1251159141        5.9310467497
 H        -7.3246441537        6.2738785279        5.0453055570
 H        -8.6498394172        5.1857046456        4.4407705329
 H       -13.6210226643        4.2024162917        7.4059315041
 H       -15.1489053746        3.3862585760        7.0387643170
 H       -14.7423268228        4.9508500128        6.1866378623
 H       -12.6658022619        1.4035595124        5.0324318933
 H       -14.1808110610        1.1412813157        5.9635729233
 H       -12.8828227303        1.8329855829        6.8612567113
 Na       -7.7904298625        3.2805830596       -2.4954548698
