117

 C       -15.5194819928        2.0931788608        3.6567604199
 C       -14.8768815095        3.3979284548        4.2109643703
 O       -15.0865728746        4.5057990195        3.8136169463
 C       -13.7936601325        3.2715630794        5.3978484631
 C       -12.4841719375        3.9263765857        4.7820140191
 O       -11.5953415916        3.2237403363        4.3352260227
 C       -12.3916513808        5.4609255744        4.7184248351
 C       -11.2884583442        6.0157416175        3.8487351765
 C       -10.5921171310        7.2900119692        4.3717196170
 O       -11.2363190584        8.1084175875        4.9215598467
 C        -9.0312572240        7.4072308338        4.2938465280
 C        -8.7984585403        7.4556498712        2.8182478502
 O        -8.9319670214        6.4333626998        2.1530918539
 C        -8.5009453007        8.7040897294        2.0836500390
 C        -8.0663093901        8.4792280980        0.6193585424
 C        -6.5524538993        8.0370216047        0.5406743646
 O        -5.8123079081        8.0079968842        1.5093435399
 C        -6.2096310304        7.4267968687       -0.8446199275
 C        -6.7146479599        5.8713385965       -0.9531074545
 O        -7.1332777475        5.3822252763       -1.9891647844
 C        -6.1762846163        5.0175604613        0.2113151799
 C        -7.1103367976        4.0087142169        0.8824396163
 C        -7.1516942347        2.6704821350        0.1938561594
 O        -6.4645789356        2.4689345208       -0.8042826547
 C        -8.0382488249        1.5344235499        0.7970783413
 C        -9.4155870833        1.4923666515       -0.1085882647
 O        -9.2912403231        1.4502457855       -1.3269135860
 C       -10.7423859963        1.3246731578        0.6086380558
 C       -11.9085164297        2.2559878326        0.0122851166
 C       -12.1083060890        1.7939167644       -1.4417425216
 O       -11.9650870026        0.6434602218       -1.7268984766
 C       -12.4460065419        2.8470593034       -2.6012904991
 C       -10.9274857974        3.0648186620       -3.1470427424
 O       -10.1776332454        3.6820945427       -2.3682515868
 C       -10.4306490595        2.6703539584       -4.4521898606
 C        -9.9533183985        1.2017634806       -4.6758781910
 C        -8.4381529770        0.9886786110       -4.8907947996
 O        -7.6871077521        1.8191826078       -4.4631206605
 C        -7.9316299195       -0.3298441800       -5.5370356756
 C        -8.7692105168       -0.8590957840       -6.8765454815
 O        -9.4174684390       -0.0602147379       -7.4778081966
 C        -8.5597969402       -2.3440897990       -7.2557615755
 C        -6.4554244694       -0.1693563185       -5.9501093382
 C        -8.1118894811       -1.3753609144       -4.3643764708
 C       -13.4981287102        2.1784254647       -3.5975809448
 C       -13.1371241834        4.1344884659       -2.2159273430
 C        -7.3466345250        0.2235353281        0.3546769718
 C        -8.2206874931        1.7394743826        2.3833112465
 C        -6.8586392994        8.1984692504       -1.9786411701
 C        -4.6590094376        7.3067455633       -0.9744223886
 C        -8.5610616227        8.6691321650        5.0843646165
 C        -8.2383215197        6.0991457325        4.7985672253
 C       -14.3987683548        4.0515534160        6.6018951368
 C       -13.3702427972        1.9178676270        5.8866049764
 H       -15.8941970481        1.5679664220        4.5224182936
 H       -14.7989146576        1.4933875136        3.0252575718
 H       -16.3191198299        2.3964552990        3.0317025198
 H       -12.5086474341        5.8971143382        5.7591671465
 H       -13.3538120403        5.8216375684        4.3896144071
 H       -11.5714690495        6.3238614806        2.7796074339
 H       -10.6092622673        5.1465851411        3.6806863938
 H        -7.7630047672        9.2641798295        2.6790701407
 H        -9.4036272706        9.3657188387        1.9877902510
 H        -8.0553364346        9.3875531678        0.0022902174
 H        -8.5568235891        7.6765148789        0.0854829602
 H        -5.7609680540        5.7449671619        0.9194850005
 H        -5.3968777266        4.4502557463       -0.3455285150
 H        -8.1355168126        4.3980577772        1.0536826735
 H        -6.6572184188        3.9268136351        1.8756971626
 H       -10.6604573929        1.4499642545        1.7095508955
 H       -11.0737861376        0.2977437768        0.4212451975
 H       -11.6696919277        3.3082680207        0.1019029249
 H       -12.8644454469        2.0648908821        0.5349277001
 H        -9.6214593135        3.3651641532       -4.7518701081
 H       -11.2442289080        2.8233217620       -5.1940489275
 H       -10.3786753521        0.7864443925       -5.6489808284
 H       -10.2443390786        0.5630183442       -3.9238622321
 H        -8.5469076118       -2.5240587501       -8.3449644564
 H        -9.4677636866       -2.8181600683       -6.8859397403
 H        -7.7713283224       -2.8446849400       -6.7889704281
 H        -6.4833232602        0.6832079861       -6.5789015842
 H        -6.1482402319       -0.9902980460       -6.5633068168
 H        -5.7293727374       -0.0729839853       -5.1320665226
 H        -9.1038778885       -1.7430495828       -4.2366099821
 H        -7.8759777147       -0.9367153239       -3.4043833996
 H        -7.3853176207       -2.1620040927       -4.6041193192
 H       -14.4858205563        2.2675382656       -3.1477373868
 H       -13.2595878945        1.1011291521       -3.8025460342
 H       -13.4682427465        2.7102945746       -4.5375619163
 H       -13.2524694927        4.8339291909       -3.0529294454
 H       -12.5510256323        4.6319244207       -1.4665484102
 H       -14.2024061265        3.9853980729       -1.8693501927
 H        -7.2183149827        0.1147495384       -0.6779901686
 H        -7.8747197746       -0.5802880052        0.8052619691
 H        -6.3456376589        0.1828807397        0.7393594281
 H        -7.1917460839        1.6850606948        2.8456269783
 H        -8.7161644139        0.8716803004        2.9304747882
 H        -8.7522584917        2.6692663581        2.6485303363
 H        -6.3779797656        7.9572097465       -2.9403324434
 H        -6.6425617239        9.2314057175       -1.8021736026
 H        -7.9152345503        8.1438426330       -1.9191099307
 H        -4.1409376733        7.2358781501        0.0263522202
 H        -4.3540364377        8.1953031591       -1.4187141643
 H        -4.2349606966        6.4869924216       -1.4800924073
 H        -8.6825143611        8.5074440470        6.1948202836
 H        -9.1687722098        9.5351989182        4.7313666178
 H        -7.5679538631        8.8447605263        4.8003106073
 H        -8.6234088353        5.8446235938        5.7995311015
 H        -7.2139006283        6.4061487000        4.9985294961
 H        -8.3472833140        5.3041157217        4.0646060017
 H       -13.8139617161        3.8489432577        7.5215672260
 H       -15.3809019702        3.5757935240        6.8146565776
 H       -14.5252966402        5.1299213621        6.3452268566
 H       -12.8850639032        1.3377142192        5.1244323296
 H       -14.1715973263        1.3417955147        6.3503638536
 H       -12.7389948170        2.1570642614        6.7770786149
 Na       -7.9232368292        3.1406779675       -2.5033729841
