117

 C       -15.5322869392        2.1603475710        3.7351366471
 C       -14.8857756289        3.4426475140        4.2341148196
 O       -15.2235809678        4.5550163445        3.8790891390
 C       -13.8242328167        3.3019017633        5.4362730487
 C       -12.4882912032        3.8635350188        4.7916670896
 O       -11.7167623776        3.1098407669        4.2229448185
 C       -12.3488275909        5.4179705013        4.8126573987
 C       -11.1173600191        5.8420548601        3.9942516095
 C       -10.5501923996        7.2030054078        4.3827483042
 O       -11.2762816207        8.0857372824        4.8369902247
 C        -9.0071476837        7.4273554819        4.2757854482
 C        -8.8134882510        7.4874390808        2.7072949814
 O        -8.9873255543        6.5135594734        1.9984748717
 C        -8.3072901291        8.7357060635        2.0622596682
 C        -8.0586199040        8.6282239076        0.5937808717
 C        -6.6343469172        7.9888070466        0.3607257298
 O        -5.8296884184        7.9230097528        1.3008487016
 C        -6.1640661593        7.3550088535       -0.9830826610
 C        -6.5479775702        5.8197072967       -0.8815886965
 O        -7.2543841202        5.2864009275       -1.7101699177
 C        -5.9499229986        5.0241900280        0.2945330761
 C        -7.0533032265        4.0947221549        0.8139647149
 C        -7.1162241880        2.7403468462        0.1557256389
 O        -6.5596043475        2.5383634835       -0.9079029133
 C        -7.9845152377        1.4758257676        0.8331589325
 C        -9.2869440201        1.4935500863       -0.1184462560
 O        -9.3469061353        1.4597751902       -1.3419410132
 C       -10.6672131173        1.5379654529        0.6604926743
 C       -11.6642658673        2.4653743175       -0.0917418507
 C       -12.1385337190        1.9008649203       -1.4441254742
 O       -12.2190128354        0.7129395991       -1.7096436358
 C       -12.3900538908        2.8789631460       -2.6553089241
 C       -10.9883931098        3.1447200504       -3.0791990059
 O       -10.2458977569        3.7197381794       -2.3270533491
 C       -10.3632626444        2.7531268431       -4.4038301678
 C        -9.9982426477        1.2303197636       -4.6024150708
 C        -8.5390507184        0.8839562296       -4.8226627796
 O        -7.6984218301        1.7279878908       -4.5118703578
 C        -8.0094162562       -0.4595402719       -5.4202182417
 C        -8.7525594780       -0.9223341236       -6.7606099124
 O        -9.4681679775       -0.0631792102       -7.2464867556
 C        -8.6166345917       -2.3874792070       -7.2422420946
 C        -6.4658707281       -0.3818925893       -5.6921343061
 C        -8.1479425803       -1.5725610453       -4.2799345123
 C       -13.1518040101        2.1047209127       -3.8152833548
 C       -13.0284299956        4.2248743494       -2.1782362579
 C        -7.2884897226        0.1309542162        0.5999491236
 C        -8.3146613245        1.6223767835        2.3560915222
 C        -6.8465229846        8.0415452889       -2.1869924009
 C        -4.5762154716        7.6195487769       -1.1121092932
 C        -8.6049982279        8.7292121304        5.0059211835
 C        -8.2437386140        6.2456146984        4.8887534953
 C       -14.2957623370        4.2340437206        6.5506126552
 C       -13.7201427197        1.8188627884        5.8533117531
 H       -16.3444544963        1.9085818387        4.4469230149
 H       -14.8221054739        1.3914876854        3.6079193800
 H       -15.9900249722        2.3720047757        2.7178288239
 H       -12.4323367239        5.9019367139        5.7468482598
 H       -13.2973442939        5.8739926883        4.4418363466
 H       -11.2460526572        5.9463232355        2.9337234391
 H       -10.3214042741        5.0932312860        4.0177946756
 H        -7.4291084819        9.0225599906        2.6643518757
 H        -9.0132144889        9.5466081996        2.1741692100
 H        -7.8616186537        9.5788910181        0.1184075715
 H        -8.7523999779        8.0034101916        0.0402582507
 H        -5.7028749431        5.7971051328        0.9989875999
 H        -5.1242001552        4.4591399600       -0.1023760531
 H        -8.0000381810        4.6136986341        0.7196524212
 H        -6.8762085715        4.0190904363        1.8859295268
 H       -10.6781861789        1.9021049784        1.6663115652
 H       -11.1137722605        0.5356314518        0.7647267596
 H       -11.1110668256        3.3577431692       -0.3367562305
 H       -12.4484972502        2.7427734800        0.5707234066
 H        -9.6095085387        3.5076834403       -4.5695656114
 H       -10.9869852570        2.8662436396       -5.2644565319
 H       -10.5573199408        0.8288790379       -5.3911733578
 H       -10.2998204283        0.6330630445       -3.6549331768
 H        -8.0336192012       -2.4307386596       -8.1282967230
 H        -9.5762392764       -2.8904085871       -7.5043610843
 H        -8.0286240256       -2.9624945367       -6.4690372458
 H        -6.3207743978        0.4128532197       -6.4526580802
 H        -6.1502597387       -1.3471215709       -6.0626803233
 H        -5.9001818239       -0.1727051896       -4.8290691373
 H        -9.2243554605       -1.5409475713       -4.0539590330
 H        -7.6393896634       -1.2870676412       -3.3484093761
 H        -7.8478347108       -2.5386048023       -4.5993113870
 H       -14.2317207735        1.9786531343       -3.5943376295
 H       -12.7353424957        1.1381486546       -3.9718649349
 H       -12.9809637572        2.6900062574       -4.7314236350
 H       -13.1717920214        4.8728694713       -3.0346670618
 H       -12.3561747414        4.7203784778       -1.4392527160
 H       -13.9974026568        4.1323425368       -1.7791753967
 H        -7.0963569010        0.1531303796       -0.5163264833
 H        -7.9493588445       -0.7264552613        0.8282923649
 H        -6.3115829045        0.0385238290        1.1065611455
 H        -7.4444382360        1.6062457100        2.9145800679
 H        -8.8522051886        0.7522937289        2.6439780782
 H        -8.8679009866        2.5456898632        2.6053325290
 H        -6.1202683606        8.1994737306       -2.9261383386
 H        -7.3027367989        8.9816846022       -1.9202923202
 H        -7.6080765393        7.3734631667       -2.5820742632
 H        -3.9251571323        7.0016851215       -0.5911487965
 H        -4.3665677337        8.7267879376       -0.9200814019
 H        -4.2107171145        7.4134632890       -2.1531596713
 H        -8.7759597789        8.5495403970        6.0176026927
 H        -9.1043842745        9.5773507257        4.6297155185
 H        -7.4888356000        8.8581737673        4.8911855955
 H        -8.4644199508        6.0697026364        5.9379084786
 H        -7.1921811936        6.5944482573        4.9839323937
 H        -8.3561842061        5.3869496191        4.1829627220
 H       -13.5245559307        4.0908023765        7.3040133786
 H       -15.2582133757        4.0201338973        7.0246492045
 H       -14.3739223291        5.2328947885        6.1490364118
 H       -13.6133289635        1.1548112787        5.0027180643
 H       -14.5349172642        1.4644688272        6.4592422222
 H       -12.8360621124        1.7129180341        6.4193151237
 Na       -8.0350048964        3.0265228064       -2.6205595362
