117

 C       -15.6764290538        2.1928215399        3.6412809560
 C       -14.9863301218        3.4858603427        4.2813620378
 O       -15.2461734340        4.5778944598        3.8688572774
 C       -13.8782127203        3.3245658249        5.4314145079
 C       -12.6028544316        3.8177048914        4.7344434858
 O       -11.8041646111        3.1031440806        4.2321965753
 C       -12.3264058616        5.2918538814        4.8249740925
 C       -11.0161293492        5.6983622581        4.0358976371
 C       -10.5472181665        7.1703702283        4.3917178093
 O       -11.2754477703        7.9969406138        4.8152443637
 C        -8.9752729406        7.4217304778        4.1857097678
 C        -8.6891852533        7.4833248383        2.6354650791
 O        -9.0178976444        6.5048175267        1.9839260087
 C        -8.1838051673        8.8358105496        1.9858261361
 C        -7.9476547909        8.7561569764        0.5042421112
 C        -6.5791456954        8.0415232921        0.2903503136
 O        -5.8499908163        7.8606662421        1.2729146821
 C        -6.1660595725        7.3626544115       -1.1436936444
 C        -6.4678366765        5.8159262548       -0.9374450673
 O        -7.3127422289        5.2759803571       -1.5989203491
 C        -5.8646602631        4.9907843296        0.2675373628
 C        -7.0192620321        4.0399634621        0.9042453064
 C        -7.0776297737        2.6642893200        0.2375359629
 O        -6.6302784120        2.5065871721       -0.8904207721
 C        -8.0100698281        1.5563357716        0.7585562959
 C        -9.3031260085        1.4619529046       -0.0067404504
 O        -9.3107909376        1.3851018289       -1.2475432234
 C       -10.6758360845        1.6799852382        0.6755307585
 C       -11.5987928729        2.4904195266       -0.2699536480
 C       -12.0997666920        1.7922164920       -1.5254299070
 O       -12.4177281991        0.6427953460       -1.5492578906
 C       -12.2954008213        2.8560179811       -2.7431334791
 C       -10.7749427976        3.2254513284       -3.1434272189
 O       -10.0808196058        3.9344744035       -2.3710372851
 C       -10.2940249993        2.7047179870       -4.4623944496
 C       -10.0684549062        1.1041645117       -4.5276400453
 C        -8.4769268602        0.9224309971       -4.7060621220
 O        -7.6293705884        1.7498161781       -4.4611417288
 C        -8.1194760613       -0.5482330275       -5.2090055861
 C        -8.8349267240       -0.9165315172       -6.5458867756
 O        -9.4935131445       -0.1396544006       -7.1664235392
 C        -8.5952789799       -2.2359948516       -7.2501250185
 C        -6.5429113114       -0.4403138459       -5.6680721493
 C        -8.3371510922       -1.6486769457       -4.1805067587
 C       -13.1360138019        2.2488992206       -3.8590372077
 C       -13.0447424641        4.1467040195       -2.3027985122
 C        -7.2475027762        0.1992414145        0.6020240157
 C        -8.2397022205        1.6647014558        2.3158795352
 C        -6.9375524512        7.8426430845       -2.3767416150
 C        -4.6631876573        7.6929966878       -1.1075094856
 C        -8.6258903807        8.7862829434        4.9474224726
 C        -8.2246081169        6.3093124485        4.9541785716
 C       -14.2402984833        4.2242461631        6.6317602560
 C       -13.7645933853        1.9022749282        5.9206412054
 H       -16.4343930887        1.7862002861        4.2840696230
 H       -14.8794825008        1.4723721387        3.4305433726
 H       -16.1304410511        2.4629455825        2.6907270550
 H       -12.3106868564        5.6393683169        5.8723483711
 H       -13.1250438921        5.9653076048        4.5950129722
 H       -11.1312578643        5.6754618197        2.9684578677
 H       -10.2392555929        5.0395532214        4.1384401175
 H        -7.3599677550        9.2054541509        2.5345231992
 H        -8.9926459437        9.5581240771        2.1689719010
 H        -7.8101509085        9.7080751677       -0.0751688890
 H        -8.5658597192        8.0467122161       -0.0101879286
 H        -5.4479689454        5.7278656400        0.9259838391
 H        -5.1633125117        4.2897465627       -0.2013663904
 H        -8.0210149655        4.5338583921        0.8138907813
 H        -6.8236156932        3.9904451758        1.9495944096
 H       -10.7011778284        2.1677064961        1.6439152108
 H       -11.2050458446        0.7310922651        0.9070777183
 H       -11.0296109403        3.3871306167       -0.6077851832
 H       -12.4674990371        2.8771269631        0.3612195985
 H        -9.5094557230        3.3467322294       -4.9160422112
 H       -11.0838460158        2.8551026735       -5.2220753128
 H       -10.6628259663        0.5543565962       -5.3375925166
 H       -10.2919985591        0.6231373879       -3.5785123408
 H        -7.8681705909       -2.2439700794       -8.0576657895
 H        -9.5898635092       -2.5487640162       -7.7239239511
 H        -8.2714175340       -2.9752895065       -6.5390814145
 H        -6.5240390724        0.2618694365       -6.5335422577
 H        -6.0536116567       -1.3999275005       -5.8457923434
 H        -6.0002300674        0.0576356214       -4.8225153551
 H        -9.4008691639       -1.5550038725       -3.9677190221
 H        -7.7722129947       -1.5009490817       -3.2284634204
 H        -8.1545485549       -2.6366830686       -4.5972724442
 H       -14.1141460413        1.9431736746       -3.4395776794
 H       -12.6901070283        1.3381987831       -4.2220643038
 H       -13.2350990573        2.9295659075       -4.6598203653
 H       -13.3776625124        4.6532822490       -3.1793249162
 H       -12.4191514477        4.7876665678       -1.7116766572
 H       -13.9598526181        3.9632577419       -1.7357012998
 H        -6.8037090738        0.0350318211       -0.4395047771
 H        -7.9742390073       -0.6619929593        0.8144813681
 H        -6.4152486379        0.2060811638        1.3655209003
 H        -7.3392942018        1.7553633115        2.8324914705
 H        -8.7786461336        0.7572069367        2.5971493145
 H        -8.7751450538        2.5460935701        2.5957712092
 H        -6.1928998693        7.9082006168       -3.2345855345
 H        -7.4906998613        8.7844688934       -2.2456421524
 H        -7.6113367429        7.0080210214       -2.6581159664
 H        -4.1807426666        6.7776534783       -0.6725260210
 H        -4.3297655474        8.6044070628       -0.5864425653
 H        -4.1659004826        7.6807565820       -2.0615499812
 H        -8.9036416917        8.5426355333        5.9768593296
 H        -9.1635013364        9.6521383281        4.5657492486
 H        -7.5725718921        8.9624813281        4.9862662505
 H        -8.4520979872        6.4276337935        5.9703014272
 H        -7.2073383291        6.6059435683        5.0182172633
 H        -8.3274299979        5.2781590840        4.5566505748
 H       -13.3243792109        4.4097422080        7.1693144513
 H       -14.9244017047        3.7591326557        7.3412066089
 H       -14.8091316534        5.0530340344        6.2690391458
 H       -13.3390342770        1.2228917918        5.2064107752
 H       -14.7502931043        1.5013997421        6.2141531878
 H       -13.0583729913        1.8811939941        6.7857845570
 Na       -7.9969253768        3.1108583028       -2.6635388399
