117

 C       -15.9018303631        2.9186899743        3.4973869749
 C       -15.0014982255        3.8839874540        4.2023576047
 O       -15.1083553857        5.0821649230        3.9600641064
 C       -14.0025909582        3.3506722406        5.2569029810
 C       -12.5960777664        3.8185986833        4.6290480146
 O       -12.0104765292        3.0460697286        3.9632259953
 C       -12.2213661087        5.2460225782        4.8195708128
 C       -10.7197459543        5.5178028123        4.2599107755
 C       -10.3626954710        6.9793378506        4.0746159354
 O       -11.2483629045        7.7684328108        4.0130714777
 C        -8.8780529417        7.4585830593        3.9860299353
 C        -8.6683375122        7.2290690305        2.4388367235
 O        -8.5255403468        6.0856017206        2.0608544385
 C        -8.6416854572        8.4176231435        1.4386394324
 C        -8.0996066179        7.9375607112        0.1110572964
 C        -6.5390580318        7.7846468236        0.0446253275
 O        -5.7797334517        8.0719116679        0.9784460677
 C        -6.1083627150        7.1467553321       -1.2907927545
 C        -6.3376459123        5.6020810101       -1.2223438492
 O        -7.2717831022        5.1171252386       -1.7869626010
 C        -5.4551193367        4.8592466054       -0.1488429815
 C        -6.2833839446        4.0475162224        0.8738940262
 C        -6.9287005526        2.8271634415        0.3368775249
 O        -6.5741494727        2.3394370263       -0.7414661331
 C        -8.0992992942        2.1254137037        1.0883991428
 C        -9.4456817547        2.4181529601        0.1917391090
 O        -9.3403106964        2.1791656166       -1.0018780055
 C       -10.7935890310        2.7135874559        0.8979336968
 C       -11.7979785880        3.3008586640       -0.0855429236
 C       -12.0387404187        2.3997451286       -1.2634177022
 O       -12.1834204062        1.2130854618       -1.1988277647
 C       -12.2257731326        3.0930536977       -2.7936574379
 C       -10.8006740734        3.0650841455       -3.5386681686
 O        -9.9605296427        3.8179175075       -3.2288629259
 C       -10.4545083254        1.9516955509       -4.6749376492
 C       -10.2243108007        0.6619921023       -3.9687504893
 C        -8.7334243171        0.2668440415       -3.9837184381
 O        -7.7941208213        0.9547170555       -3.5884499122
 C        -8.4079268871       -1.1110886656       -4.7477448957
 C        -8.8885279994       -1.0696231861       -6.2907478557
 O        -9.8706128378       -0.4559622459       -6.5745276028
 C        -7.9864507862       -1.8536743813       -7.2660971617
 C        -6.8515921062       -1.3846921385       -4.5699558020
 C        -9.1633183451       -2.3448165352       -4.1034730339
 C       -13.3298054498        2.3048642881       -3.5491228381
 C       -12.4329319419        4.6155654378       -2.6038591395
 C        -7.8141162544        0.5870103362        0.9988540142
 C        -8.2749234332        2.5624979452        2.5046591419
 C        -7.0207442255        7.7776328326       -2.4428428442
 C        -4.6025478166        7.5349532455       -1.4092902913
 C        -8.7581154578        8.8748866942        4.5014862968
 C        -7.9206025786        6.5561605835        4.6973396271
 C       -14.1821992854        4.1228988141        6.6841304903
 C       -13.9161945271        1.7827004453        5.4710063714
 H       -16.3987882113        2.2420952432        4.2188181682
 H       -15.3177158023        2.2951549085        2.8614993352
 H       -16.6316425004        3.5721877489        2.9618577756
 H       -12.1179808458        5.5688179223        5.8112148826
 H       -12.8938374038        5.9256545016        4.2538894827
 H       -10.6053310458        5.1354242739        3.2863172798
 H       -10.0303143410        5.0241636938        4.8887095456
 H        -8.0770235446        9.2911947666        1.7936016109
 H        -9.6311901269        8.7709969094        1.4176986147
 H        -8.2963423270        8.6101780502       -0.7116253984
 H        -8.5327884764        6.9520709753       -0.2356022576
 H        -4.8620877362        5.6735824346        0.3106509966
 H        -4.7243416364        4.1735794206       -0.6252310827
 H        -6.8666107499        4.7149584601        1.4589689537
 H        -5.5339613113        3.7418683110        1.6562860130
 H       -10.7217780589        3.4449395861        1.6985595295
 H       -11.0556187382        1.7570184997        1.4101754893
 H       -11.3613830049        4.3010885962       -0.4103674120
 H       -12.7957138390        3.5412984405        0.3780893962
 H        -9.5558544773        2.3519214804       -5.2198335172
 H       -11.3781534500        1.8870165184       -5.2579144930
 H       -10.7933690271       -0.1017188720       -4.3699407642
 H       -10.6080956484        0.8495529764       -2.9220482239
 H        -7.3002557188       -1.1030766269       -7.5269026559
 H        -8.4881125618       -2.1113528328       -8.2718473934
 H        -7.4398200889       -2.7573414122       -6.9156334005
 H        -6.3478683760       -0.5328289447       -5.0888522916
 H        -6.4635834524       -2.2968084770       -4.9931106608
 H        -6.6253542971       -1.3351747699       -3.5301573345
 H       -10.2346093564       -2.1602225072       -4.1618203735
 H        -8.9447193859       -2.4322038219       -3.0282443069
 H        -8.9514627675       -3.2664989137       -4.5818980676
 H       -14.3206409330        2.5822132027       -3.0971054990
 H       -13.1951264708        1.2602500507       -3.4147678867
 H       -13.4349903521        2.4964046179       -4.6329010424
 H       -12.9174846578        5.1070464172       -3.4399552957
 H       -11.4731494153        5.1770319132       -2.4137155321
 H       -13.1145607915        4.7288209309       -1.8045486204
 H        -7.8254941498        0.4033561518       -0.1145857340
 H        -8.5280180472        0.0322811254        1.6516546456
 H        -6.7953242813        0.2987050510        1.3305884268
 H        -7.4753215757        2.3173761970        3.0438818942
 H        -9.0546545683        1.9854734597        2.9774052506
 H        -8.5870379924        3.5960627221        2.5131913167
 H        -6.6117384997        7.5971883846       -3.4282082888
 H        -6.9635524280        8.8383375280       -2.2688122103
 H        -8.0663037743        7.5614407952       -2.3826120524
 H        -4.0316721978        7.0271422004       -0.6528600278
 H        -4.5607997417        8.6424100737       -1.1060912368
 H        -4.1684237153        7.4630323682       -2.4243716854
 H        -8.4519602260        8.9938181825        5.4977738562
 H        -9.6876601761        9.3871946807        4.3945037231
 H        -8.0198337548        9.4354676002        3.8630604390
 H        -8.1822060398        6.4006010685        5.7426264369
 H        -6.9041128617        7.0201988347        4.6409508508
 H        -7.8287018542        5.4728164024        4.3634225329
 H       -13.6428845598        3.7368273806        7.5152631037
 H       -15.1905345301        4.0160756542        6.9946851781
 H       -13.8184095130        5.0980236715        6.6968073423
 H       -13.1074554281        1.3334104700        4.9490669768
 H       -14.8098151868        1.2429490397        5.2303002577
 H       -13.8661608825        1.6508634861        6.5076432588
 Na       -7.8160973316        2.8008417018       -2.5598265777
