117

 C       -15.8611857471        3.0696477934        3.4555469163
 C       -14.9174156767        3.9773025440        4.1820224447
 O       -14.9604985042        5.1586722375        4.0028306551
 C       -13.9611871937        3.3239053320        5.2078896860
 C       -12.5260837114        3.8741566980        4.6378858102
 O       -11.7835630626        3.1204945417        3.9444784682
 C       -12.2033941206        5.3294162519        4.8677940864
 C       -10.8302280981        5.6332503077        4.2643913531
 C       -10.3922877712        7.0692189684        4.0533575628
 O       -11.2266493945        7.9074996952        3.8497695513
 C        -8.8830599044        7.3747589757        3.9523262637
 C        -8.5683082503        7.0192871466        2.4780994008
 O        -8.4157246941        5.8479632334        2.1306121651
 C        -8.7726392890        8.1547031250        1.4579555106
 C        -8.2557280049        7.9707893154        0.0754176831
 C        -6.7218069001        7.7977272791       -0.0019292457
 O        -5.9940228749        8.0364686114        0.9465414527
 C        -6.0829123913        7.1577293021       -1.3579106829
 C        -6.1987969002        5.5987679236       -1.2794254357
 O        -6.9626144211        5.0598791602       -2.0933554344
 C        -5.3689493053        4.7931933628       -0.2166911344
 C        -6.2449986262        4.1806278323        0.8540122652
 C        -7.0073747043        2.9732120826        0.3572542050
 O        -6.5734400744        2.4113281924       -0.6245619644
 C        -8.2029801720        2.3266394711        1.0740665642
 C        -9.5957690802        2.5771534684        0.3697857709
 O        -9.6174943017        2.6589561692       -0.8329000165
 C       -10.9554127389        2.7892360096        1.1788920417
 C       -11.8332061801        3.5196790893        0.1306934198
 C       -11.9507807724        2.6439197060       -1.2347578392
 O       -12.0508823838        1.4259147347       -1.1364809254
 C       -12.1205695902        3.1896563169       -2.7427916102
 C       -10.6862602477        2.9179744219       -3.5116466916
 O        -9.7777208179        3.7877668638       -3.2892422955
 C       -10.6423159736        1.8297396183       -4.5877684134
 C       -10.2941938107        0.4280626414       -3.9314401576
 C        -8.7820862699        0.0265985989       -4.0334589763
 O        -7.9344500311        0.6678749744       -3.4526513369
 C        -8.3772921911       -1.2854433891       -4.7700721524
 C        -8.7714143442       -1.2584268076       -6.3197115378
 O        -9.8122463206       -0.6877888713       -6.5834577394
 C        -7.8367151655       -1.8052238561       -7.3417710620
 C        -6.9178798661       -1.5911888463       -4.4969644596
 C        -9.3235816817       -2.4511479167       -4.2138994431
 C       -13.2700874277        2.3884236165       -3.2768448897
 C       -12.4232894764        4.7026472434       -2.8197245163
 C        -7.9512786647        0.7721215815        1.0496525996
 C        -8.2914048561        2.7821512275        2.5706066472
 C        -6.6846142205        7.6573802570       -2.7150913844
 C        -4.6299056376        7.5117942792       -1.5319143169
 C        -8.5999559118        8.8043694252        4.2544408486
 C        -8.0080231523        6.4035130945        4.9001693659
 C       -14.3256831201        3.8821618189        6.5752614814
 C       -13.9639195062        1.7642533940        5.2640443675
 H       -16.6478648989        2.8744094315        4.1613800287
 H       -15.4144248048        2.1074340895        3.1765361461
 H       -16.2200519239        3.5965036363        2.5876803348
 H       -12.0556041717        5.5881496505        5.9569348193
 H       -12.8053186830        6.0002524704        4.3094105085
 H       -10.6723927947        5.1314595121        3.2323398650
 H       -10.0865604227        5.1731274614        4.9941302350
 H        -8.3615949498        9.0742030633        1.8719009156
 H        -9.9064934773        8.3294418011        1.4618346213
 H        -8.5735907856        8.7188398906       -0.6661487338
 H        -8.5892402469        7.0339000502       -0.3196123048
 H        -4.6713338308        5.5525212149        0.1152791064
 H        -4.7512879470        4.0206200796       -0.6914705657
 H        -6.8411501327        5.0615073508        1.2044129598
 H        -5.6784414879        4.0051250339        1.7492527800
 H       -10.7492581661        3.4517552636        2.0564950939
 H       -11.4352735274        1.8875477848        1.5686458076
 H       -11.3485510832        4.4561879560       -0.1046594654
 H       -12.8376353427        3.7810470254        0.4513522679
 H        -9.8460932074        2.1081478232       -5.2311085225
 H       -11.6450396846        1.8719143009       -5.0096424696
 H       -10.8178967050       -0.3249314627       -4.5953641519
 H       -10.6997475155        0.3392657471       -2.9540721612
 H        -6.8260911890       -1.3101290734       -7.4591175081
 H        -8.3118057494       -1.8887561290       -8.2625161395
 H        -7.6848007760       -2.8246101883       -7.0226728796
 H        -6.2879999442       -0.8006560618       -4.8942053809
 H        -6.5692502845       -2.5937913605       -4.8754054400
 H        -6.8446554734       -1.6443866798       -3.3732906977
 H       -10.3781722832       -2.2504497009       -4.4061425020
 H        -9.2808105713       -2.4651199587       -3.1327384388
 H        -9.0175455673       -3.4655572839       -4.5635303738
 H       -14.1117268597        2.5386805534       -2.6586307755
 H       -13.1003837532        1.2968520173       -3.3457331064
 H       -13.5029241251        2.7249098390       -4.2751959243
 H       -12.5398773268        4.9931160866       -3.8587338713
 H       -11.6945182091        5.3279686129       -2.3850034356
 H       -13.4603828055        4.8605388725       -2.4755402774
 H        -7.7906270355        0.4050728735        0.0363584592
 H        -8.7212396090        0.3278289800        1.6912684614
 H        -6.9833391638        0.5465265316        1.5468355752
 H        -7.3029253327        2.4404707291        3.0626695890
 H        -9.0295514794        2.1734616357        3.1228091761
 H        -8.4967198503        3.8825481607        2.6718573246
 H        -6.2035026105        7.1597074208       -3.5779338545
 H        -6.5651446996        8.7789611772       -2.8100241530
 H        -7.8041724203        7.5646862983       -2.6930481498
 H        -4.0802631332        7.3177695719       -0.6085065375
 H        -4.6051823584        8.5286684104       -1.8366219143
 H        -4.1560618605        6.9389542621       -2.3426224341
 H        -8.4558009210        8.9341166966        5.3549751514
 H        -9.3650964812        9.5311269994        3.9086580077
 H        -7.6893132026        9.1260302867        3.7970304796
 H        -8.1676878817        6.4335157471        5.9831981723
 H        -6.9824149968        6.6826385803        4.8099015798
 H        -8.0700083542        5.4077196089        4.6303262202
 H       -13.4205267767        4.0329393827        7.1629468453
 H       -14.9789271589        3.2104374734        7.1363937522
 H       -14.6408821409        4.9327833648        6.5932669606
 H       -13.7546428975        1.4065657148        4.2200676858
 H       -14.9240721017        1.3318305354        5.5760567540
 H       -13.2543398592        1.3676871224        6.0255057329
 Na       -7.9695745131        2.8391082689       -2.3824518371
