117

 C       -15.9769226992        3.0985274608        3.3432342374
 C       -14.9566731038        3.9904087549        4.1023371721
 O       -14.9277244549        5.1852716239        4.0305424383
 C       -13.8706158369        3.3295008786        5.1131594449
 C       -12.5370167636        3.9032389001        4.6989211580
 O       -11.7845023309        3.1538679664        4.0759174477
 C       -12.2614308693        5.2989882990        4.9283137865
 C       -10.8382314638        5.5816267938        4.3295275017
 C       -10.3789217912        7.0740570282        4.0941907360
 O       -11.1262510276        7.9575474435        3.8156406026
 C        -8.8004509107        7.3791595616        3.9549295475
 C        -8.5934217220        7.0054252057        2.4929569529
 O        -8.4187371708        5.8718029518        2.1647462754
 C        -8.7962556833        8.1215780959        1.4110522728
 C        -8.3226761970        7.8516460914       -0.0282966490
 C        -6.7696871053        7.7295581608       -0.1186617312
 O        -6.1440061689        8.0029845966        0.9071740018
 C        -6.0380583223        7.1771399673       -1.4380494916
 C        -6.1291834823        5.5658000115       -1.3486972021
 O        -6.8135049276        4.9640496028       -2.1658667865
 C        -5.3780051028        4.8710947732       -0.2653313076
 C        -6.3032899497        4.2602834643        0.8036288297
 C        -7.0013636490        3.0092918432        0.3677904164
 O        -6.6033312968        2.3952375198       -0.6080964282
 C        -8.2411896704        2.3411331476        1.2561227705
 C        -9.5369197352        2.7382952353        0.4903721567
 O        -9.5898276693        2.7788564541       -0.7316568461
 C       -10.8923282251        2.9414576531        1.1249427140
 C       -11.8659276126        3.5686047175        0.1285503877
 C       -11.9260552226        2.7226550417       -1.1536712875
 O       -11.9477373305        1.5330892918       -1.0488771064
 C       -12.1685523453        3.2918340358       -2.7267441927
 C       -10.8114451228        2.9313327871       -3.4715243740
 O        -9.8799558011        3.7089049627       -3.4169663112
 C       -10.5862619160        1.7275303838       -4.4476352433
 C       -10.3267182803        0.2917837360       -3.9420101972
 C        -8.8919073291       -0.0561795383       -3.9645517226
 O        -8.0153851916        0.6448807826       -3.4752589889
 C        -8.4171637740       -1.4163827237       -4.6790316768
 C        -8.7828549166       -1.2661716827       -6.3346638536
 O        -9.7853308746       -0.7574436561       -6.6890998600
 C        -7.7622171829       -1.8021338355       -7.3542665086
 C        -6.9517513494       -1.6995769395       -4.4584903367
 C        -9.3425999374       -2.5845972692       -4.2090805883
 C       -13.2552965812        2.4013106579       -3.3511767776
 C       -12.3985775632        4.7879086815       -2.7336107160
 C        -8.1691254764        0.8051120449        1.1099008496
 C        -8.2408384737        2.8715444445        2.6721692549
 C        -6.6842393714        7.5782508857       -2.8242253580
 C        -4.5058745033        7.5471493919       -1.4570499409
 C        -8.5057447223        8.8169064065        4.2620662888
 C        -8.0381330258        6.4172332546        4.9022124698
 C       -14.2530444445        3.8557130970        6.5632618528
 C       -13.9270963414        1.7483617342        5.1263744012
 H       -16.8207072979        2.9390599949        4.0264381941
 H       -15.5467299054        2.1662482393        3.0876340646
 H       -16.2960432841        3.6003714591        2.3822120661
 H       -12.2659333059        5.5570437892        6.0120682582
 H       -12.8718100282        5.9104331722        4.2554297860
 H       -10.8019167988        5.1237287601        3.3081377805
 H       -10.1177582809        5.0249831946        4.9838726760
 H        -8.1807878376        8.9923750980        1.7510748980
 H        -9.8356536889        8.4920290105        1.3992569318
 H        -8.5753051998        8.7120825276       -0.6433730498
 H        -8.7646531883        6.9593345794       -0.5269034402
 H        -4.5138547973        5.4689633102       -0.0002663728
 H        -4.9704704732        3.9989697675       -0.7303386773
 H        -6.9481088565        5.0096828111        1.1993135926
 H        -5.6908379923        4.0417596600        1.6881585397
 H       -10.8372210393        3.4381585164        2.1204380860
 H       -11.3203463146        1.9714511177        1.2878585605
 H       -11.6002555552        4.5564241253       -0.1472064776
 H       -12.8212060011        3.6214066434        0.5375474729
 H        -9.6781015837        2.0960668185       -4.8785508136
 H       -11.4050337983        1.7444894297       -5.1115595765
 H       -10.8734490014       -0.3794373258       -4.5512384510
 H       -10.6868766013        0.1382326120       -2.8557995787
 H        -6.8450614297       -1.3745900970       -7.1456148696
 H        -8.0531707175       -1.6293584464       -8.4115115499
 H        -7.6233617205       -2.8875975330       -7.2469612217
 H        -6.3190625057       -0.9222560259       -4.9170028357
 H        -6.7416500165       -2.6762686520       -4.9066638011
 H        -6.7472681735       -1.8129632551       -3.4285662274
 H       -10.4061942608       -2.4101966191       -4.4672019604
 H        -9.3875484616       -2.5692906470       -3.1247536963
 H        -8.9874037581       -3.5871410035       -4.4946964965
 H       -14.1749363171        2.3643245611       -2.7922872701
 H       -12.9323418770        1.3875556239       -3.4197940023
 H       -13.4248191036        2.7313266485       -4.3968304868
 H       -12.2695857016        5.1823785794       -3.7525958272
 H       -11.6524491720        5.3018174224       -2.1028882239
 H       -13.4141362188        5.0056779616       -2.5298877561
 H        -7.9159881382        0.7353747864        0.0730354887
 H        -9.0282048562        0.3037902136        1.4615429584
 H        -7.3090225294        0.4330361045        1.5692802350
 H        -7.3279496167        2.6419185021        3.1374488852
 H        -9.0214108536        2.3309318528        3.2544749138
 H        -8.4687345539        4.0014421078        2.6486821596
 H        -6.0524452820        7.1385087437       -3.5803826923
 H        -6.7741934740        8.6568506368       -3.0313286886
 H        -7.7052858530        7.1888857153       -2.9058371198
 H        -4.1582829311        7.4718459892       -0.5065512357
 H        -4.3382794012        8.4927288934       -2.0086893789
 H        -3.9535328976        6.7627907775       -2.0020389178
 H        -8.8506744228        9.0574699903        5.2453056360
 H        -8.9553086010        9.4959301427        3.5512944347
 H        -7.4011528099        9.1131341245        4.2142792569
 H        -8.4345878273        6.3294603815        5.8958231999
 H        -7.0416858133        6.7553089809        5.1456164307
 H        -7.9589771581        5.4344738432        4.4626305403
 H       -13.3944195426        4.1256938411        7.2227660014
 H       -14.9033514085        3.1067620700        7.0938212643
 H       -14.7337910676        4.8437952815        6.5550275344
 H       -14.1157607517        1.2829616844        4.1038916242
 H       -14.7257638762        1.4030976515        5.8091260260
 H       -13.0345304927        1.3491520909        5.5926174272
 Na       -7.9033857059        2.8638315310       -2.3952751146
