117

 C       -15.9781427429        3.1605767963        3.3898197644
 C       -15.0055988230        4.1171317563        4.0503364459
 O       -15.1216567076        5.2957197974        3.9926482752
 C       -13.9421171985        3.4120055950        4.9245250094
 C       -12.4652686596        3.9491801982        4.6538195071
 O       -11.5712203175        3.1285863984        4.2884438701
 C       -12.1562494550        5.4597404185        4.7326257852
 C       -10.6837306260        5.6719493343        4.5152634021
 C       -10.2990726958        7.1329961845        4.1450943508
 O       -11.1478110780        7.9658460357        3.9821935944
 C        -8.8255970837        7.5070281261        3.8788654643
 C        -8.7067366979        7.1759024859        2.3407675755
 O        -8.6695921658        5.9824975912        2.0944032790
 C        -8.8209117656        8.1765710068        1.1872486042
 C        -8.2893992870        7.4340674082       -0.0806981508
 C        -6.7970629014        7.4156213791       -0.1271850471
 O        -6.1638189274        7.8004750140        0.8616755184
 C        -6.0567320481        7.0043620286       -1.4787573421
 C        -6.0915262924        5.4218414257       -1.4639841036
 O        -6.5374318738        4.6973980655       -2.3688856393
 C        -5.3672589359        4.6346849164       -0.3184530921
 C        -6.3040393275        4.2099814383        0.8215683767
 C        -6.9718995858        2.8600205774        0.5104423409
 O        -6.5734670588        2.1413575007       -0.3957840896
 C        -8.2680001359        2.4611142706        1.3467203888
 C        -9.3779874956        3.1751813496        0.4823483016
 O        -9.2559835502        3.5026963094       -0.6816777232
 C       -10.7209687737        3.4611889911        1.1172496736
 C       -11.7922874344        3.6007753542        0.0243776781
 C       -11.8264846626        2.6045891641       -1.1095701040
 O       -11.8807353569        1.4066355460       -1.0237910785
 C       -12.0927817287        3.2650705598       -2.6183102181
 C       -10.8559056100        2.8489799795       -3.4504007865
 O        -9.8455364744        3.6096663734       -3.3331677055
 C       -10.7559539403        1.6362082343       -4.4327408946
 C       -10.3959942116        0.2856684636       -3.6726259746
 C        -8.9670322915       -0.1646943862       -3.9230227162
 O        -8.0412384502        0.5765202266       -3.6628621409
 C        -8.6040195351       -1.5719377627       -4.5898064856
 C        -8.7189760616       -1.3136209047       -6.1472590316
 O        -9.7674045109       -0.9059548351       -6.5684840500
 C        -7.6432795861       -1.6264944007       -7.0639993180
 C        -7.1674142567       -1.8131666297       -4.1063767570
 C        -9.5665460990       -2.7510999457       -4.2563883947
 C       -13.3825842057        2.5682844711       -3.1849496734
 C       -12.2994500653        4.7983913784       -2.6479116449
 C        -8.5326091987        0.9447156022        1.3040077928
 C        -8.2907414145        2.9896257345        2.7647630106
 C        -6.7391555210        7.5407677307       -2.7646707793
 C        -4.5696045638        7.5481355645       -1.5191484373
 C        -8.5909839723        8.9861025208        4.2201857420
 C        -7.7921930283        6.6035600632        4.5348087079
 C       -14.3888346123        3.6970809043        6.4132428632
 C       -13.9914082643        1.8344981867        4.7983227159
 H       -16.5038058203        2.6571907502        4.1750456647
 H       -15.5143029605        2.4875195990        2.7033652386
 H       -16.6950893269        3.7169331138        2.7536327005
 H       -12.4747767424        5.8026477931        5.7283170684
 H       -12.7700935912        5.7322820171        3.9295088098
 H       -10.4457027902        4.8851451600        3.7488309167
 H       -10.2215133545        5.2573669479        5.4540599826
 H        -8.2173580628        9.0293452164        1.4427730719
 H        -9.8808262527        8.4815498891        0.9852376731
 H        -8.7356789517        7.8448716120       -1.0038350127
 H        -8.6177105208        6.4074347543        0.0450205499
 H        -4.5250249647        5.2496902603        0.0765570090
 H        -4.8265146664        3.7392456127       -0.7123170416
 H        -6.9537032645        5.0756836285        1.1491099076
 H        -5.5858421350        4.1774772663        1.6397632330
 H       -10.7273221921        4.4404243300        1.6748038122
 H       -10.9339223239        2.6426574135        1.8074052626
 H       -11.6582593016        4.6362989120       -0.3892171605
 H       -12.8436608527        3.5854418984        0.4462769874
 H        -9.8726681049        1.9615127418       -5.0270385300
 H       -11.6515803848        1.4824023521       -5.0875758194
 H       -11.1112073916       -0.4389663903       -4.0843265655
 H       -10.5852225096        0.2908241877       -2.6230211017
 H        -6.6744957307       -1.2035540219       -6.8879228685
 H        -7.9977104332       -1.4661000570       -8.0831265795
 H        -7.5607902432       -2.7340661193       -7.0200220356
 H        -6.4282795901       -1.0306161980       -4.2857008697
 H        -6.8762583805       -2.7507020413       -4.6394211094
 H        -7.1091833215       -2.1060285454       -3.0536925198
 H       -10.6024622771       -2.5225855799       -4.5323727847
 H        -9.5860082158       -3.1516344093       -3.2782461892
 H        -9.2753282046       -3.5503549033       -4.9574960544
 H       -14.2950758335        2.8664971938       -2.7372395045
 H       -13.3043665176        1.5129324016       -2.8739055880
 H       -13.4842844934        2.5984147169       -4.2872275730
 H       -12.8310412830        5.1882632331       -3.5278858614
 H       -11.2743664603        5.1375761431       -2.6294612154
 H       -12.7888148049        5.1480424697       -1.7299768212
 H        -8.5617159625        0.7117544281        0.1782794878
 H        -9.5863160351        0.8927541816        1.6696504550
 H        -7.7453139424        0.3407217856        1.8450358547
 H        -7.5049013542        2.5180094160        3.3198716978
 H        -9.2780133300        2.8375721099        3.2007793178
 H        -7.9589438183        4.0835599435        2.7823075967
 H        -6.1410280651        7.3383837153       -3.6322938697
 H        -6.9058531373        8.6442691338       -2.7761801306
 H        -7.6960279001        7.0133939203       -2.9385368043
 H        -4.0256959789        7.5246435585       -0.6213428229
 H        -4.6954794004        8.4941465485       -2.0572859235
 H        -4.0290404152        6.8434835729       -2.2163689138
 H        -8.6713553454        9.0671014884        5.2913094674
 H        -9.2112550795        9.7222474638        3.7674622869
 H        -7.5841291743        9.3335149506        3.9589339433
 H        -7.5869377604        6.7046958923        5.6196720713
 H        -6.7785727673        6.6950028062        4.1447483476
 H        -8.0999537975        5.6268027345        4.2575123690
 H       -13.8922898456        2.9665717091        7.0241070508
 H       -15.4547561910        3.6665551416        6.5974845866
 H       -14.1361988901        4.6787195762        6.8016503571
 H       -13.5595634051        1.5084140552        3.8360349202
 H       -15.0001470006        1.5421523539        4.7863997421
 H       -13.5184977786        1.3165120472        5.5918017303
 Na       -7.7459867645        2.6821735166       -2.7555948185
