117

 C       -16.1538421257        3.3652547483        3.2627691438
 C       -14.9881172228        4.1156361037        3.9926017034
 O       -14.9104186682        5.3338428007        3.9517023687
 C       -13.9175372832        3.4067231887        4.8983387302
 C       -12.5048796412        3.9023974232        4.5970936791
 O       -11.6399446194        3.1550649814        4.2748328115
 C       -12.1695294344        5.4439610492        4.6179721611
 C       -10.6136544465        5.7694821054        4.7566346523
 C       -10.3536869208        7.1324760135        4.2304480868
 O       -11.2019487725        8.0023216097        4.2113509113
 C        -8.8904801200        7.5247789410        3.7242340479
 C        -8.8881246820        7.0411795206        2.2274287165
 O        -8.9406137413        5.8231914713        1.9886839362
 C        -8.8843148534        8.0950865123        1.1238064491
 C        -8.2149245351        7.6961610920       -0.1764007656
 C        -6.7354182317        7.3088123954       -0.1109475878
 O        -6.0109690011        7.5419211410        0.8406111943
 C        -6.1187895043        6.8902312061       -1.4648763229
 C        -6.0416274329        5.2228810332       -1.4643451234
 O        -6.5618124420        4.6559071754       -2.4085943096
 C        -5.2729147919        4.5788442468       -0.4157838373
 C        -6.1738752263        4.0773575819        0.7493918079
 C        -6.9382158939        2.8071431919        0.4550537585
 O        -6.5974231085        2.0169273051       -0.4067214901
 C        -8.2566248578        2.5105132062        1.2450136785
 C        -9.3598091640        3.3390249151        0.4020642911
 O        -9.0924352881        3.8236728658       -0.6935587879
 C       -10.7434142842        3.3811129682        0.9702244895
 C       -11.8881518656        3.8099237846        0.0082825560
 C       -11.8843275297        2.7848276457       -1.1809331220
 O       -11.5734306395        1.6076001426       -0.8656655092
 C       -12.1101226154        3.1571999943       -2.6383765767
 C       -10.8043212768        2.8061027680       -3.4462740805
 O        -9.7387551258        3.3363576069       -3.2550528320
 C       -10.8733120021        1.5691608673       -4.3107191253
 C       -10.4076482176        0.2630701609       -3.6568142444
 C        -8.9398836989       -0.0869688759       -3.9041879259
 O        -8.0273796156        0.7043859314       -3.6370340277
 C        -8.6707801944       -1.5204084644       -4.4646946822
 C        -8.7813350900       -1.2837887867       -5.9885682517
 O        -9.8202502925       -0.8677530312       -6.4894872340
 C        -7.5798409257       -1.5612986619       -6.8651105917
 C        -7.2957993576       -2.1294223886       -4.0058256598
 C        -9.7471938981       -2.5595063745       -4.1022918357
 C       -13.4197433946        2.4883552083       -3.0750201720
 C       -12.2827325301        4.7289779460       -2.8487309934
 C        -8.6061182127        0.9478843486        1.1947551266
 C        -8.1613790323        2.9627475860        2.7609851036
 C        -6.9598703970        7.2639474415       -2.6802487283
 C        -4.5916724777        7.3264711704       -1.5645633270
 C        -8.6577270924        9.0993977596        3.8447298748
 C        -7.7508748871        6.8866779502        4.5083635175
 C       -14.3000857013        3.7633892331        6.3597886195
 C       -13.8193550215        1.8922526688        4.6708248749
 H       -16.7126955167        2.7319929849        3.9609369077
 H       -15.7493019534        2.8103495662        2.3873854576
 H       -16.8077689691        4.0440085240        2.7999300849
 H       -12.8230342960        5.8346107831        5.4083144906
 H       -12.5618882200        5.7457843027        3.5605760321
 H       -10.1345529238        4.9234722928        4.2321948171
 H       -10.3134292279        5.6791141247        5.8056465038
 H        -8.4375286738        9.0803535577        1.3966351902
 H        -9.9525875989        8.1989082859        0.9107820168
 H        -8.2378770165        8.5964961304       -0.7872322764
 H        -8.8258591922        6.8927496808       -0.6308028441
 H        -4.4300965006        5.1605131808       -0.1293011345
 H        -4.8245505002        3.7192562836       -0.8792379106
 H        -6.7973211028        4.8871817098        1.0472285425
 H        -5.4733192119        3.9427668896        1.5959368389
 H       -10.8313435513        3.9935190148        1.8436116142
 H       -10.9575066138        2.3202667070        1.2314542727
 H       -11.9489801543        4.8317634702       -0.2274008380
 H       -12.7548768221        3.5403312713        0.5433155632
 H       -10.3307534992        1.7376836638       -5.2248747683
 H       -11.8955722488        1.5022341545       -4.6678120417
 H       -11.1764171866       -0.5050006303       -3.8526696959
 H       -10.4337036371        0.3998050895       -2.5318355081
 H        -6.8828747098       -0.6892612092       -6.6542387991
 H        -7.8853972267       -1.5007886679       -7.8752660493
 H        -7.0264657485       -2.4543084644       -6.7255995608
 H        -6.5184943364       -1.4008023682       -4.2713568565
 H        -7.0597857431       -3.1314282263       -4.3685185056
 H        -7.2041748676       -2.1442161671       -2.8934158023
 H       -10.7332215355       -2.3422980938       -4.5103608340
 H        -9.8727311205       -2.5565901977       -2.9787272179
 H        -9.5420617587       -3.5705586360       -4.4270388404
 H       -14.2129492615        2.6807936203       -2.3245209126
 H       -13.3619370638        1.4102266648       -3.1008950930
 H       -13.7936744145        2.8597706991       -3.9942433807
 H       -12.2153539493        4.8459994462       -3.9195594470
 H       -11.4891476946        5.2783556275       -2.3480685772
 H       -13.2291860680        5.0650165973       -2.4180725132
 H        -8.6917186825        0.5441202815        0.2317913609
 H        -9.5147360565        0.7862162694        1.7337417542
 H        -7.7565390738        0.6070809391        1.7396341922
 H        -7.3475018715        2.4114248081        3.3492338255
 H        -9.1692808315        2.8203325580        3.1488206885
 H        -7.8677244381        3.9805767370        2.8615073751
 H        -6.4715737585        6.8757980044       -3.6294678168
 H        -7.0099738187        8.3477911048       -2.8349433176
 H        -7.9759300278        6.8341426990       -2.6780165687
 H        -4.0318954438        6.6989817641       -0.7964916439
 H        -4.5021698330        8.3573974625       -1.2836149449
 H        -4.1985067343        7.1079049746       -2.5108221041
 H        -8.3107942514        9.4180806636        4.8517196812
 H        -9.5557476995        9.7275341578        3.6104857956
 H        -7.9208062851        9.4579474475        3.1523337127
 H        -7.6316134209        7.4218501582        5.4205927353
 H        -6.8241149617        6.9888768682        3.9809657520
 H        -7.8128894207        5.8217987116        4.6956899702
 H       -13.6680300170        3.2613924911        7.1120852316
 H       -15.3102955613        3.4060211233        6.5472083713
 H       -14.5146929021        4.8294194881        6.5409723641
 H       -13.6536074145        1.6155627528        3.6356055834
 H       -14.7235230204        1.3420520507        5.0732951457
 H       -12.8849569317        1.5679460262        5.2262472707
 Na       -7.6465290361        2.7342077043       -2.4538900806
