117

 C       -16.1303001708        3.6418541128        3.4224766081
 C       -14.8259039412        4.3851176451        3.6603233705
 O       -14.4712170630        5.2926636471        2.9272930299
 C       -13.7506352233        3.7315729164        4.7526449990
 C       -12.2391445223        4.2381451870        4.4663772443
 O       -11.5458295015        3.5365407798        3.7480287003
 C       -11.7359765168        5.5986089102        4.9704357240
 C       -10.3347841730        6.0278463546        4.6176300306
 C       -10.2768095461        7.4885134889        4.1919623823
 O       -11.2244704916        8.2326718412        4.4495232183
 C        -9.0319123734        8.0617831804        3.3789593173
 C        -8.9252841294        7.4348250911        1.9530432675
 O        -8.9402992912        6.2156152444        1.8305873065
 C        -8.6920498095        8.4595077902        0.7515508805
 C        -8.0217033987        7.7734548970       -0.4864605225
 C        -6.8595873216        6.9367735276       -0.1669471016
 O        -6.3227208725        6.8140926633        0.8900148372
 C        -6.1647321974        6.2815861375       -1.4495700894
 C        -5.8744197968        4.6271257179       -1.5134271703
 O        -6.2786746229        4.0124264437       -2.4579655182
 C        -5.1363453072        4.0195490046       -0.3369772599
 C        -5.9388663567        3.4496431187        0.8486651985
 C        -6.9369382559        2.3717672962        0.4580840673
 O        -6.7890147833        1.6794597312       -0.5336195658
 C        -8.3311088732        2.3747043287        1.2685319984
 C        -9.2365071620        3.4247708457        0.4603322676
 O        -8.8763259998        3.9410092658       -0.5775442996
 C       -10.6130734168        3.7484326281        0.9701822272
 C       -11.5962175366        4.0650641038       -0.2285302007
 C       -11.6597777518        2.9293399759       -1.2414851074
 O       -11.4972829708        1.8147399208       -0.9710824628
 C       -12.1073682521        3.2028713030       -2.8291103203
 C       -10.7739567473        2.8372775905       -3.5005442571
 O        -9.8391499466        3.5986234578       -3.4064969600
 C       -10.5937421760        1.5777593202       -4.3743789224
 C       -10.6176163049        0.2946062030       -3.4059544316
 C        -9.2782620613       -0.2379575309       -3.2007718045
 O        -8.4454880271        0.2470149289       -2.4586613739
 C        -8.8065206009       -1.5760988152       -3.8743986779
 C        -8.9709877208       -1.2778985906       -5.4262260903
 O       -10.0710904753       -1.2893611658       -5.9750105479
 C        -7.7388104017       -1.0188041500       -6.2660476594
 C        -7.3842042606       -2.0120711880       -3.4884575302
 C        -9.8188439754       -2.7095581556       -3.5569370845
 C       -13.2259211643        2.2158884096       -3.2185124458
 C       -12.5269000015        4.6554254833       -3.1663968821
 C        -8.9602097797        0.9305897582        1.0953551335
 C        -8.1716706534        2.6838844374        2.7523587497
 C        -6.9933747505        6.6571694793       -2.7026935530
 C        -4.8448036076        7.1186175552       -1.5578880833
 C        -9.0582683411        9.6373152552        3.4252627584
 C        -7.7164895727        7.4871930095        4.0512259415
 C       -14.1231288468        3.9447141879        6.2609945963
 C       -13.7442911385        2.1739101660        4.5319761290
 H       -16.6425267390        3.2055893355        4.2595358361
 H       -15.9032663433        2.8004303395        2.8250593015
 H       -16.8694211286        4.3307815918        2.9624087751
 H       -11.9399402136        5.6907692068        6.1026522972
 H       -12.5802002884        6.3133771672        4.7202022431
 H        -9.8731283470        5.3042455428        3.8959472551
 H        -9.6341576751        6.0778741141        5.5400108159
 H        -8.0936998386        9.3451337023        1.0127093805
 H        -9.7145095815        8.9106203455        0.5056477842
 H        -7.9568383170        8.5511697100       -1.2666556944
 H        -8.7319318904        7.0320593348       -0.8339381569
 H        -4.3824332210        4.6635752888        0.0845236362
 H        -4.6954918441        3.1435826773       -0.8112172687
 H        -6.5000955002        4.3046098011        1.3507654098
 H        -5.2011888692        3.0810298070        1.5447169109
 H       -10.5484936576        4.6308763660        1.6590660797
 H       -11.0243390764        2.8474008115        1.4183322204
 H       -11.3971714011        4.9520172246       -0.7936020491
 H       -12.6078644996        4.1031866637        0.0969325386
 H        -9.6615303936        1.6452313379       -4.8877063871
 H       -11.3989287878        1.5281063944       -5.1021336380
 H       -11.2617170452       -0.4758635822       -3.8874122119
 H       -11.0662083346        0.5673473741       -2.4142368350
 H        -7.2453168031       -0.1600148638       -6.0329720903
 H        -7.9694146822       -0.9658081339       -7.3562032177
 H        -7.0584219098       -1.8564669097       -6.0741998167
 H        -6.6673998030       -1.1743410096       -3.6457220556
 H        -6.9863239287       -2.8749249291       -4.0566091332
 H        -7.3811492278       -2.2983184206       -2.4507307429
 H       -10.6446051851       -2.5769300348       -4.2627866632
 H       -10.2786431287       -2.6660580904       -2.5972623996
 H        -9.4171286068       -3.7184390153       -3.6489228183
 H       -14.1812038964        2.5019436852       -2.8268972042
 H       -12.9947766106        1.2248341068       -2.7979708878
 H       -13.2709013250        2.0049098158       -4.3183462642
 H       -13.0710545365        4.6378800203       -4.1169536982
 H       -11.6285638569        5.2449349483       -3.3138528617
 H       -13.2695894963        5.0176875523       -2.4636454139
 H        -8.7471034708        0.6628910051        0.0040691568
 H        -9.9810276590        0.9166010290        1.5610431711
 H        -8.3172789686        0.2076407550        1.6778619543
 H        -7.3210551701        2.1903128409        3.1800202761
 H        -8.9979138330        2.2375271719        3.4454362084
 H        -8.2643786804        3.7798302429        2.9964122734
 H        -6.5528843654        6.1840335520       -3.5511542682
 H        -6.9736432641        7.7494616394       -2.8538086432
 H        -8.0468664463        6.3492889283       -2.6642783099
 H        -4.2191796288        7.1077544173       -0.7268676882
 H        -5.1984980270        8.1494118971       -1.7965895154
 H        -4.3305695148        6.8585346549       -2.5297422484
 H        -9.6982934350       10.0053010423        4.2064583295
 H        -9.3760266754       10.0336311305        2.4893952446
 H        -7.9928918765        9.9537682181        3.6209438014
 H        -7.7409147617        7.6372894595        5.1547139043
 H        -6.8188792558        7.9714944442        3.6389570596
 H        -7.7467785565        6.4139705270        3.8729497901
 H       -13.2967079151        3.7214464424        6.8855154915
 H       -14.9113298394        3.2410426623        6.4379593794
 H       -14.3656711848        4.9311271610        6.5397563758
 H       -13.5265208452        1.9076105879        3.4884386507
 H       -14.6287375012        1.7159855904        4.8697952899
 H       -12.9816391754        1.8322519842        5.1649932292
 Na       -8.0751960087        2.5308980917       -2.4083057058
