117

 C       -16.0062719097        3.8399309127        3.6891709616
 C       -14.5728763802        4.4035729602        3.6336721725
 O       -14.2030558167        5.2782731077        2.8942773067
 C       -13.5367721155        3.7317344463        4.7247487271
 C       -12.1908468709        4.2970161141        4.3850485397
 O       -11.2868814042        3.6634531033        3.8162455175
 C       -11.9104316705        5.6681024107        4.8777547419
 C       -10.4567914537        6.0467789937        4.5357030235
 C       -10.4162468427        7.5345063929        4.1297826598
 O       -11.3441394688        8.2750365698        4.3682052710
 C        -9.0644450187        8.0410017151        3.4598137869
 C        -8.9189036300        7.4831032784        1.9437384463
 O        -9.0759435803        6.2533059472        1.7269903161
 C        -8.4689667218        8.4101166686        0.8425533381
 C        -8.0354368143        7.6699424066       -0.3921607855
 C        -6.7372695099        6.8730159099       -0.3202341836
 O        -6.2278947193        6.5895534758        0.7755098799
 C        -6.1206933777        6.3280444646       -1.6250066423
 C        -5.8117830967        4.7703206192       -1.4052608234
 O        -6.2579167260        3.9910261341       -2.2716510571
 C        -5.0605168679        4.1749487468       -0.1634835962
 C        -6.0163083720        3.5157120557        0.9394342405
 C        -7.0070295013        2.4061625211        0.4528217678
 O        -6.7206704909        1.6215789383       -0.4092758363
 C        -8.4428689322        2.3228195855        1.1627460383
 C        -9.3773945480        3.2602619622        0.3510353732
 O        -8.9722707709        3.7424371885       -0.6976228881
 C       -10.7701439187        3.6243458599        0.7971314820
 C       -11.6218103855        4.1273429590       -0.3320128217
 C       -11.8762201718        2.9181963058       -1.3220968401
 O       -11.6406559646        1.7489439602       -0.9204547778
 C       -12.1779986699        3.1132149615       -2.8954719318
 C       -10.7629002094        2.7464061372       -3.5100527857
 O        -9.8245603012        3.5040894975       -3.3020947878
 C       -10.5943772375        1.4626345113       -4.3584047294
 C       -10.6864240990        0.2380586176       -3.5186733338
 C        -9.2358286665       -0.3204139830       -3.2246813678
 O        -8.4460154029        0.4206007388       -2.6205241153
 C        -8.8544562937       -1.6518035274       -3.7879525846
 C        -9.0098215645       -1.3833546277       -5.3590790428
 O       -10.1004105252       -1.2789022681       -5.8470514895
 C        -7.8255841648       -0.9884107986       -6.1636896193
 C        -7.4791875901       -2.0330322577       -3.3202125426
 C        -9.9301099544       -2.6694706579       -3.3652014432
 C       -13.3601241258        2.2071701802       -3.2477721320
 C       -12.4681522583        4.5632405681       -3.2608305923
 C        -9.0223078929        0.8894834272        1.1790472356
 C        -8.3178591178        2.8953037400        2.6437304514
 C        -6.9069181900        6.3919462533       -2.9059267353
 C        -4.7143470693        6.9778852590       -1.6866697770
 C        -9.1443500818        9.5977245334        3.4875507671
 C        -7.7885817582        7.5454446362        4.2629798218
 C       -14.1178349412        4.3676892586        5.9570335955
 C       -13.5222343041        2.2410626486        4.6288551456
 H       -16.2361521978        3.3721423103        4.6375484149
 H       -16.0512389239        2.9235422514        3.0617551966
 H       -16.7491890491        4.5702871172        3.4793811454
 H       -12.0023556580        5.7147127060        5.9391482969
 H       -12.7875800480        6.2592958111        4.6280400336
 H       -10.2524575083        5.4981847911        3.6263074708
 H        -9.7225568242        5.7782360696        5.2238459495
 H        -7.7538693626        9.1341116588        1.2467942283
 H        -9.3117070620        9.0226632446        0.7019607615
 H        -8.1243996905        8.3146725661       -1.2662190452
 H        -8.9243657620        6.9670593534       -0.5432219253
 H        -4.5456197716        4.9791745127        0.3917706311
 H        -4.3452412543        3.4615527844       -0.5564700393
 H        -6.4859433567        4.3602053464        1.4064508786
 H        -5.3617499791        3.0688982275        1.7503278028
 H       -10.6209368430        4.4936462320        1.3918961953
 H       -11.3221063093        2.8490021098        1.3399964986
 H       -11.1765500269        4.9250384632       -0.9342873945
 H       -12.5743457529        4.5148662760        0.0918883971
 H        -9.5125554818        1.4438958354       -4.6824851108
 H       -11.3468048036        1.6612401782       -5.1467674831
 H       -11.3704957405       -0.5106942369       -3.9336080576
 H       -11.1227841398        0.6023568984       -2.5858488824
 H        -7.6616468896        0.1393879038       -5.9740942697
 H        -8.0601109272       -1.0220622040       -7.1976750130
 H        -6.9271368272       -1.5434902373       -6.0005323706
 H        -6.8240031129       -1.2418250737       -3.6513068742
 H        -7.1126887139       -2.9583413072       -3.7944240236
 H        -7.3653394430       -2.1763786316       -2.1989471640
 H       -10.7237574179       -2.8022576363       -4.0945057497
 H       -10.4807583596       -2.3896960186       -2.4164890666
 H        -9.4193812242       -3.6377335266       -3.2367902105
 H       -14.2810705131        2.7608605980       -3.0118575693
 H       -13.4651857686        1.2560893357       -2.7338724430
 H       -13.3458345793        2.0180955108       -4.2833887373
 H       -13.2005223711        4.6082857605       -4.0471616747
 H       -11.5860690759        5.0846892926       -3.5788604562
 H       -13.0444577033        5.0014972160       -2.4460696199
 H        -9.2278095918        0.5606898705        0.2148694201
 H        -9.7729362455        0.9284080275        1.9086802207
 H        -8.2584452658        0.2155868028        1.4649666128
 H        -7.6206925715        2.2796687045        3.2345049768
 H        -9.1626481497        2.8210787465        3.2052609274
 H        -8.0476491363        3.9356304762        2.7070766071
 H        -6.1929625639        6.1270786461       -3.7463205801
 H        -7.2705744095        7.4323073030       -3.0414518494
 H        -7.7829773903        5.7047914752       -2.9621634866
 H        -4.0733122340        6.5717093093       -0.8546615389
 H        -4.7885351131        8.0193907250       -1.7283644226
 H        -4.2178890000        6.7106069384       -2.5930896416
 H        -9.6359431243        9.8103876631        4.4748652242
 H        -9.7713710851        9.9507435088        2.6232299744
 H        -8.1882915324       10.0366532150        3.4814156549
 H        -7.7561976940        8.0948753165        5.1839700421
 H        -6.9286583839        7.9115432540        3.7773547253
 H        -7.7688992176        6.4740724776        4.3422279841
 H       -13.4639188418        4.2071711603        6.8382937460
 H       -15.1554250993        4.0452644719        6.0808587109
 H       -14.0719500931        5.4807109586        5.8565727222
 H       -13.0539612571        2.0262109780        3.6838770367
 H       -14.5787783311        1.8713095527        4.5896062528
 H       -13.0316026392        1.7357316377        5.5134973586
 Na       -7.8622780493        2.6162574893       -2.3200344503
