117

 C       -15.9705529012        4.0536097292        3.4433678972
 C       -14.5076552073        4.3448229049        3.6015496974
 O       -13.8715092861        4.9178671692        2.7384467382
 C       -13.7190270821        3.7550642122        4.8568122606
 C       -12.1679026375        4.2572942682        4.4612776816
 O       -11.3390387631        3.5548418621        3.9134213159
 C       -11.8322244293        5.7670448914        4.8871122450
 C       -10.4057055552        6.3000833841        4.5422812086
 C       -10.2786341597        7.7691647610        3.9921268914
 O       -11.2828613469        8.4230195096        3.9762883513
 C        -8.9566332650        8.2715298919        3.4532240748
 C        -8.8071509907        7.6290710729        1.9929736259
 O        -9.3236322613        6.5348436112        1.8344523578
 C        -8.1512598778        8.4000597863        0.8191546001
 C        -7.9195182235        7.4854227890       -0.3983251023
 C        -6.5848754396        6.7938146114       -0.3253291355
 O        -5.9711315585        6.5972460025        0.7443168473
 C        -5.9796175048        6.1346103256       -1.5957923099
 C        -5.7300045242        4.6275995931       -1.4023192873
 O        -5.8046868807        3.8775104939       -2.3804257083
 C        -5.1485985657        4.1703648701       -0.0951421360
 C        -6.1737479338        3.8781503053        1.0664517593
 C        -7.0561680133        2.6566524705        0.6944317498
 O        -6.5520288206        1.8557997784       -0.0975347993
 C        -8.5024764326        2.4698238665        1.2215046997
 C        -9.4465769360        3.3128915342        0.2927158274
 O        -9.0348555497        3.6605593641       -0.7971770111
 C       -10.8504481755        3.6587758707        0.7891825199
 C       -11.8677481985        4.0248097669       -0.2971170407
 C       -12.0911472526        2.8770168688       -1.3474601471
 O       -12.1829896884        1.6615486194       -0.9993299917
 C       -12.2613666394        3.1617610225       -2.8641310319
 C       -10.9058656229        2.7510775105       -3.5698224322
 O        -9.8661433139        3.4349371496       -3.5327341645
 C       -10.8874999733        1.5051203460       -4.3419963619
 C       -10.7527983487        0.1973575995       -3.3722875960
 C        -9.2644022998       -0.3188915957       -3.2552277365
 O        -8.2954992908        0.4205543010       -2.9932209359
 C        -8.9655000702       -1.8385860098       -3.7116790134
 C        -9.0471395053       -1.5781883208       -5.2966307739
 O       -10.1100016352       -1.7088183876       -5.8269611317
 C        -7.7556317726       -1.1791937170       -5.9993608785
 C        -7.5240314980       -2.2295376876       -3.2323285167
 C        -9.9977717683       -2.8611094992       -3.2632507203
 C       -13.4284746200        2.2992425017       -3.4372718693
 C       -12.6364695275        4.6767969711       -3.2052538079
 C        -8.9500629616        0.9242095017        1.0110164739
 C        -8.5375250920        3.0829963491        2.6406704417
 C        -6.7728073578        6.3681709682       -2.8874881976
 C        -4.5531683542        6.8166664906       -1.7650428664
 C        -8.9270392862        9.8283921413        3.3879497870
 C        -7.7881979691        7.7846048195        4.3502151936
 C       -14.1041599482        4.3209955860        6.2572958695
 C       -13.7669361261        2.2454212502        4.8780627245
 H       -16.4098176246        3.3657769502        4.1908604660
 H       -16.1157088757        3.5343365192        2.4847758157
 H       -16.5322001987        4.9498423670        3.4081681558
 H       -12.0197110722        6.0344121056        5.9974941456
 H       -12.5655996419        6.4279186643        4.2831928340
 H        -9.9811086501        5.5749740680        3.7612201933
 H        -9.6625891219        6.3655608777        5.3701768715
 H        -7.2941185627        9.0566377392        1.0964578711
 H        -8.9474942411        9.1656853774        0.6421297070
 H        -8.1078622095        8.0018580417       -1.3356496299
 H        -8.7601048167        6.7679362980       -0.4128462380
 H        -4.3915376814        4.8983171065        0.2166925018
 H        -4.6723299759        3.2178353883       -0.2468411714
 H        -6.8368500892        4.6971250125        1.2304457987
 H        -5.6327421328        3.7576858331        2.0358813760
 H       -10.7716265945        4.6062569629        1.3960381025
 H       -11.2011645197        2.8565820715        1.4318424510
 H       -11.6714651601        4.9535658447       -0.7730457581
 H       -12.8078242479        4.1658609188        0.1936773364
 H       -10.0514012636        1.5814599049       -5.0069950798
 H       -11.8145907625        1.3708382903       -4.8229450526
 H       -11.4641453218       -0.5235944896       -3.6805166663
 H       -10.9899485878        0.5856443816       -2.3077587865
 H        -7.2378191125       -0.3509656244       -5.4392803632
 H        -7.8600050257       -0.8643183082       -6.9767530592
 H        -7.1482048747       -2.0537331578       -6.0179285072
 H        -6.8648514956       -1.3727525551       -3.2427235795
 H        -7.0643167355       -3.1259666392       -3.6099492404
 H        -7.6487825171       -2.3740596770       -2.1608702338
 H       -11.0071752356       -2.5694656413       -3.4672010000
 H        -9.9255923581       -3.0735644483       -2.1925726923
 H        -9.8156849769       -3.7157431029       -3.8577177894
 H       -14.3672186152        2.4374917985       -2.8309802790
 H       -13.2699123257        1.2326118919       -3.3341582210
 H       -13.6895623308        2.6379224329       -4.4482453682
 H       -12.5645297190        4.8497756757       -4.2885062150
 H       -11.8781573282        5.3534534066       -2.7508191804
 H       -13.6376755746        4.9104510198       -2.8785063371
 H        -8.6083386721        0.5120750556        0.0261233253
 H       -10.0877326850        0.9320455696        1.1468585765
 H        -8.4220714100        0.2410192644        1.7597904137
 H        -7.6675865443        2.8545267230        3.4071047326
 H        -9.4815126570        2.9115744408        3.1452847785
 H        -8.4039322667        4.1830996343        2.6056034929
 H        -6.3357897720        5.6501661783       -3.5869696858
 H        -6.6686883169        7.3277264380       -3.2988223267
 H        -7.7783963108        6.0499420483       -2.7856137364
 H        -4.1249711600        6.7791306923       -0.6875491886
 H        -4.6566239758        7.8375826140       -2.1344917117
 H        -3.8366033709        6.2725112975       -2.3154283673
 H        -8.4544883564       10.2281380053        4.2674885885
 H        -9.9550929115       10.1830717666        3.2712183999
 H        -8.3717628113       10.0390441495        2.5116928701
 H        -8.0506116633        8.0953163249        5.3426806524
 H        -6.9124204430        8.4361771508        4.1185614264
 H        -7.4888508642        6.7250824779        4.1450466345
 H       -13.2597820582        4.2183338134        6.9118134659
 H       -15.0182134411        3.9082446530        6.6366022008
 H       -14.3282315865        5.3494072211        6.0923527951
 H       -13.2197121513        1.9364389406        4.0451451241
 H       -14.7553200928        1.8033263405        4.8917693223
 H       -13.2126499062        1.9610605670        5.7519342332
 Na       -7.8217060597        2.4182100972       -2.3129196516
