117

 C       -15.8754472748        4.1135412375        3.5425794287
 C       -14.4138171552        4.3647930587        3.5623379492
 O       -13.7785514784        4.6086429452        2.5587106842
 C       -13.7021354965        3.9504853411        4.8830316726
 C       -12.1699818647        4.4184884902        4.7043176807
 O       -11.3376210025        3.7277328483        4.1942880149
 C       -12.0039105267        5.9918625852        4.8683639962
 C       -10.4530430459        6.3350220429        4.6360719347
 C       -10.2761288687        7.7040969850        3.9833089678
 O       -11.2650969204        8.3622441164        3.7956151887
 C        -8.9535883524        8.3012789854        3.3464474596
 C        -8.8057946415        7.6508306027        1.9268946841
 O        -9.1380160869        6.4983263621        1.7337221691
 C        -8.1170771940        8.5156331747        0.7653673609
 C        -7.7488656957        7.5979146830       -0.4151619619
 C        -6.3703135259        6.9030954912       -0.2996249474
 O        -5.7065131456        7.0634721454        0.6807741842
 C        -5.7994614491        6.1302507341       -1.5240060974
 C        -5.6026205326        4.5555099860       -1.3450515771
 O        -5.9028961741        3.7623297383       -2.2131894796
 C        -4.9580889321        4.0361282994       -0.0113695005
 C        -6.1420558192        3.8778535310        0.9468054347
 C        -7.0970459152        2.7053073990        0.5672960392
 O        -6.7718078086        1.8391965199       -0.2368336994
 C        -8.5712770189        2.6014439717        1.2696487585
 C        -9.5552761826        3.3378869046        0.3227999519
 O        -9.2590571241        3.6752045884       -0.8417604572
 C       -10.9228705115        3.7061573197        0.8589343606
 C       -11.9363623764        4.0127782334       -0.2986344932
 C       -12.1904662931        2.8708515648       -1.3650600343
 O       -12.3245184378        1.7577094596       -1.0245149169
 C       -12.3293789603        3.1848311649       -2.9021674882
 C       -10.9741822861        2.6847643151       -3.4543690720
 O        -9.9951865408        3.4167245447       -3.4005442885
 C       -10.8374468237        1.3748433844       -4.2540783673
 C       -10.6933148782        0.1517286866       -3.1959488395
 C        -9.2449328287       -0.4052468896       -3.2508011882
 O        -8.3071158564        0.3606381223       -3.1268436803
 C        -9.0139563239       -1.9389433748       -3.7246397512
 C        -9.0034347915       -1.8306014967       -5.3290209723
 O       -10.0111330293       -2.0979833252       -5.9496113089
 C        -7.7278839061       -1.4848225306       -6.0586795470
 C        -7.6137183499       -2.3453431774       -3.1770927893
 C       -10.1248167961       -2.9375357427       -3.2578648039
 C       -13.6031499971        2.4287493358       -3.4956236117
 C       -12.4712514765        4.7095332010       -3.2081084388
 C        -8.9661155177        1.0843149819        1.1906854847
 C        -8.6060893607        2.9300677864        2.7609502446
 C        -6.6791695793        6.2938317867       -2.7607860744
 C        -4.4680947742        6.7399515670       -1.8138765559
 C        -9.0463053063        9.8311765620        3.4737035197
 C        -7.6672663882        7.8109903291        4.0574872321
 C       -14.3809059664        4.4573470950        6.2231395314
 C       -13.6649461410        2.3522927531        4.8654257450
 H       -16.0875215316        3.3895965294        4.3160629089
 H       -16.1954440906        3.7834706164        2.5783584357
 H       -16.4712316163        5.0274831296        3.7311382019
 H       -12.2510514637        6.3326883256        5.8490352450
 H       -12.5289684089        6.6159676038        4.1637384677
 H       -10.0551706266        5.6919977452        3.8948405732
 H        -9.7972666195        6.3101075077        5.5006715133
 H        -7.1651269408        8.9046720664        1.0728923537
 H        -8.6432290502        9.4002324239        0.4410947919
 H        -7.9842976961        8.2151594651       -1.3065692082
 H        -8.4558032978        6.7677960673       -0.6052054942
 H        -4.3067375241        4.7889840051        0.4165202036
 H        -4.4029524753        3.0933784350       -0.0805558462
 H        -6.7048045687        4.8601601955        1.0558627762
 H        -5.8590732149        3.6620525097        1.9718810008
 H       -10.8982676599        4.4803184382        1.6076261158
 H       -11.2609324729        2.7779285317        1.3337167802
 H       -11.7026972642        4.9520041635       -0.8392214185
 H       -12.9214947487        4.2404749816        0.1465763989
 H        -9.8188629363        1.5065888531       -4.6974426556
 H       -11.5980713986        0.9850125254       -5.0035011798
 H       -11.4376513685       -0.6155001543       -3.5511562771
 H       -10.8821788264        0.4341377476       -2.2000653938
 H        -7.0125454127       -0.9548181257       -5.5313688341
 H        -7.9936410386       -0.8936108360       -6.9821938885
 H        -7.3210087879       -2.4372344926       -6.4797239494
 H        -6.7919454853       -1.5953847552       -3.3284965968
 H        -7.3689872289       -3.3213313531       -3.6639087589
 H        -7.6287099645       -2.5459460268       -2.0894639976
 H       -11.1180937798       -2.5426980617       -3.5695318890
 H       -10.0822856935       -2.9501836555       -2.1864378825
 H       -10.0069023944       -3.9547141137       -3.7045983967
 H       -14.5232401439        2.9363865480       -3.4125837767
 H       -13.6987400103        1.5128905266       -2.9224721176
 H       -13.5001643606        2.2565403891       -4.5696417585
 H       -12.8678697076        4.8856460982       -4.2012411084
 H       -11.4867970229        5.1498368449       -3.1658869327
 H       -13.0716526964        5.1972788672       -2.4193977889
 H        -8.4697916292        0.6350523462        0.3009824506
 H       -10.0341185658        0.9654037100        1.0967935523
 H        -8.5961371618        0.5940638071        2.0610848794
 H        -7.7329271678        2.6131981105        3.2039214675
 H        -9.5044384383        2.5106943643        3.2201018589
 H        -8.5390109347        3.9449720254        3.0492547140
 H        -6.2697017112        5.8798430371       -3.6951840435
 H        -6.8773014253        7.4016412867       -2.9634832338
 H        -7.6294433729        5.7238424848       -2.5145921993
 H        -3.7689491556        6.6055526456       -1.0793615886
 H        -4.5839849118        7.8160138901       -1.9820443307
 H        -4.0726632158        6.2154240843       -2.7094576925
 H        -9.3678681395        9.9929632084        4.5025398853
 H        -9.8341257164       10.1492643832        2.8088108282
 H        -8.0336836839       10.2845303736        3.2239747654
 H        -7.5709383791        8.1634368973        5.0816862169
 H        -6.8369442547        8.0885218060        3.4563845319
 H        -7.7058133441        6.7785429067        3.9250990067
 H       -13.9518404994        3.8044649586        6.9833208467
 H       -15.4646578745        4.3208833193        6.2503242312
 H       -14.2740477191        5.5329676776        6.3725008762
 H       -13.4346270539        1.9708307185        3.8297787833
 H       -14.6225156159        1.9920639144        5.1918366163
 H       -12.8611264501        2.0299220736        5.5157419748
 Na       -7.8017845567        2.5648882322       -2.3507562939
