117

 C       -15.9711739217        4.1996013491        3.5682004301
 C       -14.3900116979        4.2721117770        3.5022431333
 O       -13.8014356255        4.5483669832        2.4872893725
 C       -13.6402025807        3.9530460875        4.8811847685
 C       -12.2149595878        4.5393746023        4.7038665545
 O       -11.2945828264        3.7781440770        4.4423166321
 C       -11.8923122982        6.0383440444        4.9183794071
 C       -10.3761087110        6.3308122489        4.5825852192
 C       -10.3277088578        7.7409407122        3.8305804897
 O       -11.3306401191        8.4174579876        3.7168320806
 C        -9.0098527649        8.2344033738        3.2880470185
 C        -8.8150451111        7.5952877959        1.9030024457
 O        -9.0776305667        6.4481739165        1.7407032607
 C        -8.0588551115        8.4331525484        0.8600449536
 C        -7.6953084942        7.7033444204       -0.4489650329
 C        -6.2980487004        7.0288269240       -0.3108695411
 O        -5.6242795280        7.2648958097        0.7128445474
 C        -5.7166634503        6.1732896121       -1.5484670354
 C        -5.5551818144        4.6379966991       -1.2407109913
 O        -5.9521213153        3.8226116630       -2.0371159740
 C        -4.9308525109        4.0376828515        0.0341782544
 C        -6.1671367108        3.7916089368        1.0166424825
 C        -7.2169222728        2.6754669477        0.5938022349
 O        -6.9184159072        1.8892821482       -0.3285914186
 C        -8.5859625787        2.5202122224        1.2466071136
 C        -9.6733516676        3.3504238975        0.3589530778
 O        -9.2981552788        3.6516884862       -0.7535221746
 C       -11.1208458739        3.6227288782        0.7975409454
 C       -11.9565902904        4.0660729951       -0.3882836212
 C       -12.2510511962        2.9113525152       -1.3336542124
 O       -12.3302219064        1.7349022675       -0.9347099845
 C       -12.3177984031        3.2011835839       -2.8668528971
 C       -10.9737869790        2.6906208217       -3.4535093171
 O        -9.9688541105        3.4073852790       -3.2644452199
 C       -10.8618095856        1.3984241329       -4.1867306956
 C       -10.6786174707        0.0908638899       -3.1274697404
 C        -9.2332129956       -0.4723665904       -3.3284496671
 O        -8.2622166237        0.2776572572       -3.1276415097
 C        -9.0002166182       -1.9148406190       -3.7131909759
 C        -9.0190667156       -1.9729661008       -5.3726331432
 O       -10.0196481265       -2.2864166288       -5.9515594175
 C        -7.6868247917       -1.6383573571       -6.0696468120
 C        -7.6806146292       -2.4420649987       -3.1659600307
 C       -10.1044673436       -2.8997792156       -3.2623716859
 C       -13.5765827672        2.4789554896       -3.3927285788
 C       -12.3610445505        4.7582128754       -3.1909360291
 C        -9.0214864557        0.9790438436        1.1592440072
 C        -8.5845409722        3.0846403855        2.6658034558
 C        -6.6811749802        6.2591965643       -2.7806014091
 C        -4.3061485887        6.6811990013       -2.0198305617
 C        -9.0405764362        9.8135981725        3.3789905594
 C        -7.6597114272        7.7168302005        4.0317409197
 C       -14.4461559715        4.4906069956        6.0549888954
 C       -13.5004751440        2.4822023493        4.9655211067
 H       -16.3458210141        3.4139439921        4.3087675190
 H       -16.4300732078        4.1541826724        2.5767098149
 H       -16.3301945297        5.1753610999        3.9122952767
 H       -12.0801153869        6.4747382179        5.8805438491
 H       -12.3325868672        6.6077450499        4.1806366355
 H        -9.9200763469        5.5966595487        3.9967936344
 H        -9.7668507210        6.4805620523        5.4833173449
 H        -7.1509089749        8.8833705838        1.2113295225
 H        -8.6746696303        9.3022021880        0.5475495889
 H        -7.7647450053        8.5213915958       -1.1853867696
 H        -8.4164422696        7.0160883133       -0.8463671484
 H        -4.2316345651        4.7460303077        0.5383375571
 H        -4.3721022017        3.0807572638       -0.1843903869
 H        -6.7511943564        4.7523579250        1.1993056897
 H        -5.8543847244        3.4904068417        2.0398332209
 H       -11.0483861564        4.4648907788        1.5500110329
 H       -11.5234927477        2.7585860107        1.3044533472
 H       -11.3851325092        4.8373062465       -1.0070132238
 H       -12.8897928565        4.6296519251       -0.0869556577
 H       -10.0231628395        1.4136550023       -4.8995510756
 H       -11.8200214719        1.1633910857       -4.7099387470
 H       -11.3787939131       -0.6212824480       -3.3864414923
 H       -10.7586365567        0.3716851407       -2.0650816607
 H        -6.9536675097       -1.0711680627       -5.4288030529
 H        -7.8974063765       -1.0336358915       -6.9407682406
 H        -7.2055966890       -2.5622364766       -6.4994916744
 H        -6.8032392994       -1.8047202315       -3.4550733175
 H        -7.6067242827       -3.3960958562       -3.6749840993
 H        -7.5998968110       -2.6162947933       -2.1199501534
 H       -11.0084400632       -2.7594289205       -3.9179071606
 H       -10.3492874819       -2.7241681182       -2.1986614051
 H        -9.7429661469       -3.9333264294       -3.4022468236
 H       -14.4318563344        3.1192983119       -3.3342051091
 H       -13.7742642641        1.6000734448       -2.8455388411
 H       -13.5161834434        2.3154403622       -4.4797719190
 H       -12.6978915681        4.9229947091       -4.2200631233
 H       -11.3184397219        5.1336346711       -3.1243416921
 H       -12.8850541238        5.3319162392       -2.4763337491
 H        -8.9054021825        0.6064443007        0.1677949950
 H       -10.0607120239        0.8544472199        1.3961562317
 H        -8.4552464777        0.4708153268        1.8890994232
 H        -7.8399579931        2.6369740343        3.3988806660
 H        -9.5718479581        3.0411921051        3.0092132635
 H        -8.2348805620        4.0516964470        2.7184690451
 H        -6.1992496936        5.9080557716       -3.7243080394
 H        -6.8102783143        7.3355592291       -2.9439092747
 H        -7.6565776515        5.7469811305       -2.6560739396
 H        -3.5010568889        6.4407081000       -1.2576151967
 H        -4.2725653929        7.7858329150       -2.0661755975
 H        -4.0187918970        6.2081385945       -2.9153148130
 H        -9.5852498581       10.0511371333        4.2557096131
 H        -9.5994755026       10.1765366692        2.5259730057
 H        -7.9788933517       10.1775920475        3.3921387930
 H        -7.5923627823        8.2080605133        4.9626199211
 H        -6.8214730466        7.8725888667        3.3422848447
 H        -7.7249151674        6.6437451031        4.1465231183
 H       -14.2938557823        3.8788711392        6.9603845556
 H       -15.5503746399        4.3913383765        5.8447864378
 H       -14.3459715833        5.5812910175        6.1042140685
 H       -13.2940396557        2.0949638464        3.9408206865
 H       -14.4804403301        2.0883812501        5.3300448273
 H       -12.6481929573        2.1945016588        5.5892692130
 Na       -7.9053146405        2.5898682279       -2.4284293367
