117

 C       -15.9333450029        4.3677551960        3.4349493868
 C       -14.4390385069        4.2743374482        3.3890376111
 O       -13.7911840246        4.3538637072        2.3689689087
 C       -13.6175860148        4.0061032026        4.8284056864
 C       -12.0935807146        4.5464273444        4.8174708126
 O       -11.1441129906        3.8167661413        4.7617880393
 C       -11.9659179441        6.0330304915        4.9834022047
 C       -10.5368538387        6.4764443125        4.5863763915
 C       -10.3970490313        7.7523849372        3.7387997370
 O       -11.2956986959        8.5191014311        3.4972054161
 C        -8.9485101590        8.1569915155        3.2662720883
 C        -8.6113517965        7.5300048628        1.8204329525
 O        -8.9532723848        6.3720938467        1.5543452350
 C        -8.0227251295        8.4494948133        0.7482748728
 C        -7.4631549985        7.7176038169       -0.5410348668
 C        -6.0669798624        7.1483558845       -0.3947858871
 O        -5.2875003659        7.2881742573        0.5003192675
 C        -5.6580778143        6.2319777028       -1.5881013437
 C        -5.8110349518        4.6990843915       -1.1257625930
 O        -6.1245283147        3.9093234112       -2.0075895021
 C        -5.2779101451        4.2571583258        0.2252521849
 C        -6.2612121731        3.6265684818        1.1485259295
 C        -7.2778541248        2.6873336507        0.5571025745
 O        -7.0476523663        2.0257395704       -0.4161600997
 C        -8.6762446521        2.5002691103        1.2499220902
 C        -9.6307511844        3.3632241206        0.3493884989
 O        -9.3723662943        3.7226364926       -0.8162591677
 C       -11.0654706105        3.5856793648        0.9451548988
 C       -11.9725092753        4.1298284442       -0.1815441293
 C       -12.2274656079        3.0401240536       -1.2584785075
 O       -12.3432696220        1.9205610355       -0.9397720170
 C       -12.3252739173        3.3041780261       -2.8480876629
 C       -10.9889865423        2.6913514475       -3.3852852040
 O        -9.9496187923        3.2886850790       -3.3143372853
 C       -10.9370623030        1.2377234616       -4.0834831781
 C       -10.5607825499        0.0960830109       -3.2069650194
 C        -9.1569858858       -0.5113561143       -3.3105492567
 O        -8.1554484731        0.1660761147       -3.2305932259
 C        -9.0010312161       -2.0087460077       -3.6625768157
 C        -8.9806460078       -2.1716111701       -5.3654319319
 O        -9.9764327218       -2.5191282956       -5.9496802854
 C        -7.6855139975       -1.8691544764       -6.1056525587
 C        -7.6585285110       -2.5656092696       -3.1472043652
 C       -10.2611215185       -2.8244218049       -3.1592391410
 C       -13.5850925057        2.5712917257       -3.4057607548
 C       -12.3769399808        4.7534090066       -3.1815651134
 C        -9.1122964042        1.0568618752        1.4016390486
 C        -8.7923833405        3.1202077864        2.6823982506
 C        -6.5431106182        6.4052798251       -2.8126054041
 C        -4.2498930187        6.5659559974       -1.9227931268
 C        -8.8155110509        9.7163553628        3.0626139770
 C        -7.9106493366        7.7243694068        4.2457066143
 C       -14.3057675835        4.7377741861        5.9909080396
 C       -13.5470799796        2.4612577083        5.0906106270
 H       -16.2677212689        3.4244754353        3.7843609632
 H       -16.3521097386        4.7118395394        2.4874867922
 H       -16.3278620643        5.1013696348        4.1706544760
 H       -12.0129985385        6.1936810964        6.1002472398
 H       -12.7320515203        6.6203852670        4.3321372611
 H       -10.1104438980        5.6640282593        3.8738243662
 H        -9.8834522453        6.4003345537        5.4818495833
 H        -7.1276245536        8.9338489776        1.2639201528
 H        -8.7548414083        9.2100800670        0.4564934581
 H        -7.5068329251        8.3739847782       -1.4002316782
 H        -8.1935427032        6.9348861544       -0.8155489957
 H        -4.7738772849        5.0368922794        0.7925519385
 H        -4.5108633776        3.5432317081       -0.0356244653
 H        -6.8284613881        4.3977689412        1.6710368385
 H        -5.7722584412        3.0535828111        1.9449439212
 H       -11.0865067782        4.1795153647        1.8484071165
 H       -11.3577794848        2.5262479951        1.2297265521
 H       -11.5894660626        5.0131527345       -0.6015257831
 H       -12.9367233912        4.4140074824        0.1725292786
 H       -10.1157264390        1.2568169999       -4.7958254355
 H       -11.7995953097        1.0851401834       -4.7127178681
 H       -11.2496070911       -0.8417678504       -3.2654887936
 H       -10.6172122437        0.5062502560       -2.2050094783
 H        -7.1848171733       -1.1135772171       -5.6086666911
 H        -7.8340173044       -1.6393662326       -7.1941421742
 H        -7.0361543406       -2.7255473186       -6.0692556501
 H        -6.9468428747       -1.8350037580       -3.4063894754
 H        -7.3441396996       -3.5195569832       -3.5053056247
 H        -7.7202967287       -2.6111801665       -2.0625363747
 H       -10.9480442309       -2.8299331640       -3.9797814934
 H       -10.7157992495       -2.4975921229       -2.2365384931
 H        -9.9294375231       -3.8518909799       -3.0059237826
 H       -14.4818853102        2.9089455166       -2.8615020138
 H       -13.5037751723        1.4480259876       -3.3706048251
 H       -13.7695576204        2.9127100548       -4.4177491963
 H       -12.3008108238        4.7892022080       -4.2574520504
 H       -11.6766947316        5.4128106451       -2.7179127520
 H       -13.3709742438        5.1630549677       -2.8460700666
 H        -9.7165092017        0.8015154134        0.4916460940
 H        -9.9084843817        0.8944385020        2.1571941256
 H        -8.2646632500        0.4326613109        1.7768826686
 H        -7.9759691703        2.7813114811        3.2599329232
 H        -9.7837948410        2.8371788875        3.2066659714
 H        -8.6033501061        4.2458451989        2.7862009123
 H        -6.2588878483        5.7598838900       -3.5672356089
 H        -6.4520329409        7.3908294778       -3.2150147623
 H        -7.5384796303        6.2213564468       -2.5188344773
 H        -3.5808117852        6.6848230336       -1.1395511369
 H        -4.3545625284        7.6092093486       -2.2497147333
 H        -3.8069388792        5.9156108181       -2.7573061015
 H        -8.9697328635       10.1954357958        4.0355387533
 H        -9.5525020950       10.0758393995        2.3839919350
 H        -7.8072754641        9.9153445164        2.7642932205
 H        -8.2548608043        8.0129469273        5.2908120379
 H        -6.9256723816        8.0168458448        3.8661171592
 H        -7.9588499266        6.6145829570        4.2502383184
 H       -13.6239292804        4.7768829291        6.8226160350
 H       -15.0882236146        4.1493799245        6.4230512015
 H       -14.7139482406        5.6842968634        5.6463377220
 H       -12.8256970384        1.9868895976        4.4339049754
 H       -14.5234972316        2.0509051217        4.9873734171
 H       -13.1672033831        2.3184556325        6.1008535629
 Na       -8.0500466344        2.4525262296       -2.4968303571
