117

 C       -15.7585600964        4.4962591816        3.2214869559
 C       -14.2746302857        4.2645033326        3.5695078191
 O       -13.4646882342        4.1735675109        2.6617974800
 C       -13.6722969238        4.1179568959        5.0309522707
 C       -12.1917010295        4.6468556159        4.8303221483
 O       -11.2774760071        3.8461939752        4.8587059697
 C       -12.0223943100        6.0944805038        4.4115808370
 C       -10.5842534550        6.4852549871        4.3424803213
 C       -10.3331920478        7.8019963855        3.5478891143
 O       -11.2671920802        8.3920468714        3.0740493343
 C        -8.7727590657        8.3335335007        3.2087878540
 C        -8.5122708984        7.7056839390        1.8472933750
 O        -8.6048509728        6.4389362074        1.8755327405
 C        -7.8290569082        8.4417333987        0.7408701569
 C        -7.5034315206        7.6328145573       -0.5468299880
 C        -6.0271214060        7.0993703997       -0.5636399277
 O        -5.3255429849        7.4733060036        0.3108059947
 C        -5.5075019308        6.1684573807       -1.7533710622
 C        -5.9287882961        4.7527766999       -1.3004246524
 O        -6.6818353272        4.1494932813       -2.0608214434
 C        -5.4168205655        4.0399527644        0.0070476513
 C        -6.4935869051        3.9459926935        1.0780803666
 C        -7.3074073079        2.7180868667        0.7449852404
 O        -6.9522925629        1.8369904759       -0.0034896387
 C        -8.8132323819        2.6803808878        1.3921169514
 C        -9.7783679890        3.4045128965        0.4536997440
 O        -9.5809152942        3.3955479842       -0.7610163565
 C       -11.1377839517        3.9014019939        0.9510146684
 C       -12.0549699751        4.0780022664       -0.3066530030
 C       -12.1955103741        2.8902587535       -1.2872520963
 O       -12.2424344570        1.7373438047       -1.0025673304
 C       -12.2657748928        3.2558666073       -2.8671246486
 C       -10.9656975201        2.7361715766       -3.5192515590
 O        -9.9458932559        3.4087010961       -3.5138005420
 C       -10.8875964811        1.2133381269       -4.0761199734
 C       -10.5558615176        0.1691025190       -3.0579553093
 C        -9.1966468034       -0.5154437552       -3.3572301637
 O        -8.2079587448        0.1738069838       -3.6072776934
 C        -9.0828661725       -2.0973055452       -3.5919159641
 C        -9.0175421656       -2.3162846863       -5.1604261199
 O       -10.0071184789       -2.6386328034       -5.7873802125
 C        -7.7450226312       -2.0963216103       -5.9094088102
 C        -7.7209383314       -2.4932604684       -2.9539379512
 C       -10.2580347592       -2.9411212275       -3.0723971509
 C       -13.6177179931        2.6053808649       -3.3976972220
 C       -12.3502586850        4.7290979320       -3.1333323768
 C        -9.2376916130        1.2064242995        1.3347037578
 C        -8.8282315042        3.1618178050        2.8324215558
 C        -6.0679566461        6.5041041481       -3.1486981437
 C        -4.0075270530        6.1801600781       -1.7992523218
 C        -8.8063757766        9.8836917434        3.2890291656
 C        -7.7078436163        7.6897926713        4.1757242170
 C       -14.4960037951        4.8320562461        6.0681447416
 C       -13.7000575747        2.6102655519        5.2495059927
 H       -16.3488730189        3.6477911245        3.5274366705
 H       -15.8758651426        4.8435398934        2.1561734786
 H       -16.1705127140        5.3047114589        3.8584745014
 H       -12.5874010440        6.6301519447        5.1012977041
 H       -12.3418398752        6.0968026108        3.4139379025
 H       -10.1063495937        5.6469290475        3.8822676018
 H       -10.1499655542        6.4248853897        5.2977808467
 H        -6.8162981010        8.4661341554        1.1703281728
 H        -8.2465936778        9.4169288362        0.5848102942
 H        -7.6230531075        8.1942984388       -1.4521637193
 H        -8.2958358903        6.8907276038       -0.5846819323
 H        -4.4706150360        4.4661368927        0.4584735698
 H        -5.0981859527        3.0045655337       -0.2603801296
 H        -7.2208731635        4.7471004814        1.1578459863
 H        -6.0131149301        3.7494342506        2.0961543819
 H       -11.0050395094        4.8238331692        1.5511579008
 H       -11.4939842068        3.1729401839        1.7265579809
 H       -11.7146711881        4.9694222322       -0.8900393829
 H       -13.0967543756        4.3763848434        0.0668546562
 H       -10.1789510591        1.1569510660       -4.8998036743
 H       -11.7776289194        0.8934153251       -4.6033134820
 H       -11.3503289980       -0.5930658934       -2.9243341503
 H       -10.4720198095        0.6331321998       -2.0975978615
 H        -7.5095335348       -1.0150954120       -5.9072586916
 H        -7.8963474490       -2.5070658107       -6.9684956406
 H        -6.8666909652       -2.5266011717       -5.4391392567
 H        -6.9969253279       -1.8321698917       -3.3691237868
 H        -7.3743424367       -3.5110309811       -3.2177814006
 H        -7.7928202095       -2.4120762043       -1.8224587916
 H       -11.1620524722       -2.3886535751       -3.2750820403
 H       -10.0788060638       -3.0441556219       -1.9594639797
 H       -10.2683278523       -3.9524997435       -3.4795965284
 H       -14.3920198174        3.3290570367       -3.1209590396
 H       -13.7737643010        1.6432065632       -2.9045884443
 H       -13.6414935378        2.4008768223       -4.4254540540
 H       -12.7281011571        4.8714857483       -4.1369842908
 H       -11.4147618146        5.2546470627       -3.0162709090
 H       -13.0591704699        5.2383628384       -2.4606550436
 H        -8.9626130399        0.7737104514        0.4167864868
 H       -10.2630632371        1.0673111181        1.3766561119
 H        -8.9064878842        0.7517440814        2.2360698343
 H        -8.1009488495        2.6414969919        3.3640507012
 H        -9.7690690696        3.1422552694        3.4068430392
 H        -8.5518836694        4.2471508549        2.7753738119
 H        -5.4873269065        5.8485397867       -3.8389593441
 H        -5.9940180061        7.5737120262       -3.4958212454
 H        -7.1412006044        6.1762098856       -3.1453896387
 H        -3.5821127866        6.2326161937       -0.8088450204
 H        -3.4801047001        6.9439168624       -2.3669700074
 H        -3.7251284481        5.2266770574       -2.3400552037
 H        -9.1368649386       10.2385003786        4.3069566354
 H        -9.5446891145       10.1888216849        2.5151208867
 H        -7.8503258853       10.2931312781        3.1312099577
 H        -7.8507394484        8.1347682320        5.1450133059
 H        -6.7768406835        8.0117429754        3.8016637567
 H        -7.8046442499        6.6457914606        4.3109303541
 H       -14.2839210486        4.4730748434        7.1025320433
 H       -15.5792992573        4.7050527671        5.9404823446
 H       -14.1378356982        5.8813702681        6.0298808926
 H       -13.0106777564        2.1884941668        4.5388275906
 H       -14.7280366951        2.2676986866        5.0160490442
 H       -13.3928214261        2.2931698467        6.2781832540
 Na       -8.0676682216        2.2314737500       -2.2973597434
