117

 C       -15.7562832528        4.5936341789        3.3478104621
 C       -14.2915951550        4.2868663863        3.5325082418
 O       -13.6819940865        4.0077426102        2.4881726329
 C       -13.7066645026        4.2225139950        4.9657976977
 C       -12.1205556939        4.7530418502        4.8325959643
 O       -11.2341502903        4.0072830427        5.2470926635
 C       -11.9740612456        6.1479333723        4.2427085066
 C       -10.4497572877        6.5342754468        4.1926373379
 C       -10.1481196956        7.7148302903        3.3365797214
 O       -10.9925357917        8.3824027638        2.7570268077
 C        -8.7042310547        8.2190564166        3.2372101742
 C        -8.2059247234        7.5554026951        1.8186762257
 O        -8.3533070602        6.3359138402        1.7115785217
 C        -7.8465612724        8.3810580447        0.6065001153
 C        -7.3988697772        7.5076962644       -0.6440837609
 C        -5.8778416971        7.1131412977       -0.5784710739
 O        -5.1431864512        7.5480668092        0.2723823699
 C        -5.4002394184        6.2790266506       -1.7726108542
 C        -6.0802796326        4.8308789722       -1.4697484979
 O        -6.9796826957        4.4791310676       -2.2197145808
 C        -5.6582903145        3.9239189930       -0.2086842091
 C        -6.7306343652        3.8834236997        0.8137074190
 C        -7.5080169248        2.5161700751        0.7653044461
 O        -7.1379263175        1.5613577547        0.1346939387
 C        -8.9298827853        2.5360318883        1.4915819989
 C        -9.8959854990        3.1166818689        0.4209667518
 O        -9.6541174295        3.0591977418       -0.7493008927
 C       -11.2734071589        3.8672542700        0.8104494278
 C       -12.1769864147        4.2199304069       -0.3879635183
 C       -12.1305192003        3.0251119447       -1.3313448456
 O       -11.9948723799        1.8978934062       -0.8590420838
 C       -12.2401950229        3.2344162175       -2.9276144924
 C       -10.9013174544        2.5594742601       -3.4894203929
 O        -9.8747699334        3.2506700746       -3.4824404637
 C       -10.9428011102        1.2094878582       -4.0976464105
 C       -10.5897765740        0.1027310731       -3.0309293768
 C        -9.2182370003       -0.4520848506       -3.2598366885
 O        -8.2044988413        0.2531311644       -3.3025505054
 C        -9.1094699587       -2.0219764586       -3.4059499687
 C        -9.0704611971       -2.2760357438       -5.0419376423
 O       -10.1022319348       -2.6397274203       -5.5678794724
 C        -7.7366084012       -2.1308112487       -5.7633672695
 C        -7.7407770110       -2.4549744528       -2.8248607365
 C       -10.3157529559       -2.7790419067       -2.8171122292
 C       -13.5980926613        2.5013720358       -3.3185387521
 C       -12.2815668942        4.7116983526       -3.3739484488
 C        -9.2892460300        1.0654666841        1.6232024435
 C        -8.9700961088        3.3642240087        2.8039744037
 C        -5.8275654355        6.8270383695       -3.1617642477
 C        -3.9049184334        6.0736542598       -1.7690624393
 C        -8.6941020530        9.7695068084        2.9694011753
 C        -7.8766959315        7.8699450455        4.4813702782
 C       -14.5376308751        5.1386265907        5.8506138745
 C       -13.7248595721        2.7404163728        5.4339423033
 H       -16.3488185563        4.1697892580        4.1312561538
 H       -16.0213921876        4.1445268296        2.3754590035
 H       -16.0379954745        5.6002569719        3.3376743400
 H       -12.5763709228        6.8590106788        4.9007305585
 H       -12.3548327944        6.0230070527        3.2217991257
 H        -9.8522654240        5.6131259612        4.0087787361
 H       -10.1749833562        6.7659890232        5.2813122355
 H        -6.9618259170        8.9638034139        0.8114906733
 H        -8.6991890584        9.0077051162        0.2649277027
 H        -7.6432249252        8.1708386438       -1.5321376229
 H        -8.0432198364        6.6126450536       -0.7299613625
 H        -4.7047812852        4.1707531176        0.2284084459
 H        -5.5327078322        2.9425771569       -0.6146481393
 H        -7.5121418365        4.6110749509        0.6942883208
 H        -6.3275796791        3.8797763078        1.8314368226
 H       -11.0826422658        4.7179023754        1.4702222662
 H       -11.7852120043        3.2395079796        1.4810510023
 H       -11.8904356449        5.1390940618       -0.8618268566
 H       -13.1480935439        4.3423931585        0.0770350679
 H       -10.2262545543        1.2411188234       -4.9775418060
 H       -11.8849291898        0.8348521419       -4.5671226633
 H       -11.3194408507       -0.6415721062       -3.0602681792
 H       -10.6780482559        0.4862833872       -1.9728611489
 H        -7.1599906901       -1.2696573185       -5.4374948139
 H        -7.9618736615       -2.1018243172       -6.8181723070
 H        -7.1187199700       -2.9311469923       -5.5576442673
 H        -6.9271700545       -1.9478722928       -3.2875139135
 H        -7.6426809935       -3.4868967206       -3.1327115255
 H        -7.6359897776       -2.3568279610       -1.7363606751
 H       -11.0070529131       -2.9852920875       -3.6030127691
 H       -10.7313799299       -2.1902326025       -1.9952356538
 H        -9.9342650639       -3.6841846791       -2.4345871747
 H       -14.3935222615        2.9195250232       -2.6601190260
 H       -13.4839692657        1.4255668820       -3.1470800102
 H       -13.7811532479        2.5979949162       -4.3826411306
 H       -12.1944548439        4.8756360755       -4.4626012655
 H       -11.4208131845        5.2581737184       -2.9379748813
 H       -13.1913799717        5.2217569729       -3.1322279389
 H        -9.0732986207        0.5051515028        0.6603756322
 H       -10.3306597278        0.8270507305        1.9946329806
 H        -8.6099014686        0.6113521894        2.4507729620
 H        -8.3179145122        2.9724328025        3.5569692314
 H        -9.9377847140        3.3025125615        3.2569643474
 H        -8.8529326594        4.4352245764        2.5317512403
 H        -5.6055153548        6.1384378895       -3.9630411199
 H        -5.2338149878        7.6891584619       -3.2409942420
 H        -6.8373727836        7.1083215023       -3.2094920927
 H        -3.7674185950        5.7047262892       -0.7249853081
 H        -3.3096111542        6.9211406164       -1.9422967614
 H        -3.5021715405        5.4109488224       -2.4888427728
 H        -8.9355203147       10.3783128808        3.8576163353
 H        -9.4485330095        9.9551820345        2.1591878843
 H        -7.7473179817       10.0895918730        2.6364097937
 H        -8.3093908963        8.2633435820        5.4047084396
 H        -6.9464827039        8.4899106314        4.4120624182
 H        -7.7283271938        6.7462304821        4.5710392338
 H       -14.2069252436        5.3149603376        6.8597434968
 H       -15.5295091676        4.7421520355        5.7752866286
 H       -14.4922529117        6.1048572255        5.4058514820
 H       -13.5897518641        2.1743844338        4.5692222513
 H       -14.6637813346        2.4433068938        5.9080084228
 H       -12.8956120972        2.5746002495        6.1123660462
 Na       -8.0254458855        2.1463723675       -2.2012321315
