117

 C       -15.8468951552        4.5495730547        3.4509194740
 C       -14.3502946880        4.2372048648        3.4245497262
 O       -13.7003460924        3.8990999373        2.4658451607
 C       -13.7020616425        4.2909173635        4.9030844877
 C       -12.1475153415        4.7966711456        4.8819880985
 O       -11.2378264846        4.1548943859        5.3246281333
 C       -11.9247546338        6.1460166137        4.2466733255
 C       -10.4149546711        6.5808249878        4.2269894683
 C       -10.1987851419        7.7996241396        3.2542903592
 O       -11.0963203481        8.3100089760        2.6693417087
 C        -8.6173039370        8.2326689510        3.0603557363
 C        -8.0758183243        7.4775617886        1.8233318652
 O        -8.2522509242        6.2386673095        1.8222686422
 C        -7.7727043959        8.3170214496        0.6188192336
 C        -7.3467233826        7.5832965787       -0.6369268902
 C        -5.9085083870        7.2478974524       -0.5870784213
 O        -5.2089482933        7.5905246908        0.3171103737
 C        -5.3449425510        6.2239341425       -1.7110528413
 C        -6.1081328420        4.8724363261       -1.5247935531
 O        -6.9901178803        4.4739427620       -2.2955087748
 C        -5.6894083077        3.9704182159       -0.3784429939
 C        -6.7394752485        3.7752250678        0.7552652391
 C        -7.6105855347        2.5099473209        0.7802405497
 O        -7.3485762645        1.5201120750        0.1297189755
 C        -9.0054019277        2.4399165551        1.5066807106
 C        -9.9757509256        3.1180183123        0.4319318411
 O        -9.7603320231        3.0958697621       -0.8076953418
 C       -11.2283332187        3.8666432087        0.9102453069
 C       -12.0330908450        4.1928043853       -0.3836717510
 C       -12.0776779104        2.9879499164       -1.3595053423
 O       -12.1156269487        1.8733807888       -0.9652210071
 C       -12.2291829280        3.2559584115       -2.8985983982
 C       -10.9629446536        2.6082293974       -3.5781034121
 O        -9.9331903617        3.2184693690       -3.4601092194
 C       -10.8742237432        1.1651620579       -4.1406974736
 C       -10.6601869895        0.1354619262       -3.1127935262
 C        -9.2455811070       -0.5144710078       -3.1705162889
 O        -8.2028889986        0.1324581676       -3.1466390061
 C        -9.0743820403       -2.0667643586       -3.3641696660
 C        -9.0843057614       -2.2490268323       -4.9575195104
 O       -10.1104080607       -2.5816980985       -5.4878015840
 C        -7.7694199180       -2.1123554206       -5.6783109641
 C        -7.7303747637       -2.4816781816       -2.8089646575
 C       -10.2314965011       -2.8100816282       -2.7104743994
 C       -13.6184342992        2.5287666024       -3.2538419342
 C       -12.2554312193        4.6995941409       -3.4328015139
 C        -9.3334534405        0.9641400569        1.8696417003
 C        -8.9884594180        3.2669212045        2.8064943642
 C        -5.7804416042        6.8809599034       -3.0947687032
 C        -3.8129797735        5.9950109447       -1.8082211809
 C        -8.6052738841        9.7899009563        2.8856348355
 C        -7.8664053668        7.8357403726        4.3222644583
 C       -14.4047691042        5.3337466485        5.8147751461
 C       -13.7756426437        2.8320043124        5.3505659239
 H       -16.2969928468        4.2532110150        4.3451960840
 H       -16.3939485679        4.1626691032        2.6149731917
 H       -15.9466914723        5.6383482134        3.4873956355
 H       -12.5051975891        6.8469693306        4.7815034921
 H       -12.2849577896        6.0833272182        3.2303611514
 H        -9.8078787421        5.7226342969        3.9208099187
 H       -10.1482652917        6.7494459168        5.2438958912
 H        -6.9352618839        8.9663952187        0.8635119031
 H        -8.6404202529        8.8648305964        0.3276531259
 H        -7.7348704105        8.1778215279       -1.4648405418
 H        -7.8508421630        6.5822389527       -0.6638608589
 H        -4.7750906277        4.3703471827        0.1053794894
 H        -5.3906982327        3.0582600665       -0.8842823860
 H        -7.4683956588        4.5495271836        0.7611397813
 H        -6.2618549389        3.6536364110        1.7717762582
 H       -10.9084268699        4.7228010954        1.4821891805
 H       -11.6706093732        3.2504742069        1.7099180765
 H       -11.4916423391        5.0338573614       -0.8538502047
 H       -13.0899717305        4.5077007740       -0.1221979673
 H       -10.0405014464        1.2098298743       -4.8995512929
 H       -11.7293249182        0.7563589899       -4.7265662023
 H       -11.4474320831       -0.6654955886       -3.2373342331
 H       -10.8806379733        0.5027150566       -2.1566359555
 H        -7.1577581941       -1.3749723215       -5.2471506832
 H        -7.9819127516       -1.8841214615       -6.7617729356
 H        -7.1959231953       -3.0302637511       -5.6158002233
 H        -6.8814209073       -1.9356506415       -3.2037661411
 H        -7.6442783793       -3.5371512633       -3.1458366614
 H        -7.6451313815       -2.4055873629       -1.6753831783
 H       -10.9853060267       -3.0269325306       -3.4230229784
 H       -10.5462694516       -2.1208591099       -1.9355818955
 H        -9.8668908924       -3.7337850750       -2.2901391016
 H       -14.3362396740        3.0801318523       -2.6231144533
 H       -13.6190520097        1.4436810299       -2.9749427418
 H       -13.8228224815        2.6160180821       -4.2993922943
 H       -12.2374207514        4.6165505872       -4.5053216130
 H       -11.4348590978        5.3453421788       -3.2066319956
 H       -13.2332588171        5.1979967607       -3.3069160990
 H        -9.4715897363        0.3276239683        0.9673746875
 H       -10.1991835493        0.9001599226        2.5220687046
 H        -8.4963556270        0.5025733021        2.4351058419
 H        -8.1028263850        3.1373169052        3.2760204145
 H        -9.7303917434        2.9932443984        3.5707250792
 H        -9.1829676419        4.2751389222        2.5098504807
 H        -5.5962194595        6.3417539530       -4.0075470731
 H        -5.2809657585        7.8744883341       -3.0680035946
 H        -6.8589446225        7.0806312332       -3.0229847834
 H        -3.3815466132        5.5167266781       -1.0284715269
 H        -3.3711256194        6.9463715972       -1.9941623785
 H        -3.4991845273        5.5003055912       -2.7648539190
 H        -8.9139357078       10.2355633297        3.8858532784
 H        -9.3407601421       10.0973672636        2.1214717474
 H        -7.6410017466       10.2239063398        2.6341455294
 H        -8.4830828770        8.1501314060        5.1829982150
 H        -7.0119580947        8.4388297738        4.4912691172
 H        -7.6624257707        6.7779909033        4.3285576292
 H       -13.7113404858        5.8897050043        6.4053872287
 H       -15.2033463765        4.8831977431        6.3397567437
 H       -14.7950855778        6.1155603363        5.1940159352
 H       -13.5892456512        2.2158247971        4.5022725696
 H       -14.7776680447        2.6281064123        5.6502198146
 H       -13.1113704546        2.6205629933        6.1698037342
 Na       -7.8890251457        2.2673412942       -2.2116941379
