117

 C       -15.8833657814        4.4920115103        3.4295621610
 C       -14.3811030941        4.3065533435        3.4794150126
 O       -13.8141519500        3.8616742629        2.4968828083
 C       -13.6217709707        4.3951439060        4.7809435515
 C       -12.1683934459        4.8160669287        4.7734298964
 O       -11.3349589193        4.2004732393        5.3980519714
 C       -11.8802536640        6.2393219701        4.1201653154
 C       -10.4386899647        6.6596873431        4.1722351444
 C       -10.1899851028        7.7958067743        3.2416018405
 O       -11.1053441210        8.2717062648        2.5663838090
 C        -8.7565565214        8.2618228128        3.1060082218
 C        -8.2715624040        7.4365982278        1.8254637520
 O        -8.0493843708        6.2514494294        1.8539484516
 C        -7.8092932332        8.3129002259        0.6387400313
 C        -7.3542505514        7.5405346132       -0.6230905877
 C        -5.8570973511        7.1282152105       -0.5191503629
 O        -5.0809199512        7.5977900551        0.3034795365
 C        -5.3539744104        6.2251952033       -1.7282592998
 C        -6.0973935022        4.7902452830       -1.6082519249
 O        -6.9752200342        4.5258532550       -2.3911234815
 C        -5.7190023659        3.8857694869       -0.3997412231
 C        -6.7765688025        3.7431758123        0.7808173784
 C        -7.6805635240        2.4321001450        0.6308727955
 O        -7.3728546508        1.4769277108       -0.0666720426
 C        -8.9914400141        2.4580972260        1.4984858974
 C        -9.9960096223        3.0580476745        0.5065435356
 O        -9.6278216101        3.0238144946       -0.6793321136
 C       -11.2238982624        3.7983241661        0.8477728002
 C       -11.9541130095        4.2191180762       -0.3964497480
 C       -12.1564198666        3.0177694750       -1.3815297222
 O       -12.2572428148        1.8541128890       -1.0106998277
 C       -12.2606039461        3.2288407874       -2.9812748167
 C       -10.9089811334        2.5925639372       -3.5302329770
 O        -9.8842937583        3.2368808016       -3.4487548584
 C       -10.8820600052        1.1993861476       -4.2552720561
 C       -10.6686078431        0.0455451285       -3.1757061721
 C        -9.2085664456       -0.5664168230       -3.1111025870
 O        -8.2548721556        0.1957859996       -2.9604130204
 C        -9.0391358096       -2.1080198585       -3.2747220138
 C        -9.1174960907       -2.3147470968       -4.8819882745
 O       -10.1612584123       -2.5030544212       -5.4608602869
 C        -7.8296944320       -2.0843811555       -5.6536899159
 C        -7.6652080883       -2.5518932891       -2.7084080120
 C       -10.2130295590       -2.9367772777       -2.5834784979
 C       -13.5674137904        2.5239776939       -3.3198867416
 C       -12.2907632901        4.6646629880       -3.3938246244
 C        -9.4188132697        1.0043863386        1.9631940942
 C        -8.9501243501        3.2714576101        2.8541411551
 C        -5.7968957307        6.8776219797       -3.1340434529
 C        -3.8549772481        6.0011274138       -1.7436996037
 C        -8.6055537744        9.8002300515        2.8925789939
 C        -7.7332493402        7.8330329246        4.2198597700
 C       -14.2847716878        5.4487370049        5.8378287047
 C       -13.7555211798        2.9296257074        5.4133399129
 H       -16.4850365080        4.1732210519        4.3000094563
 H       -16.2662281495        3.9981586931        2.5640586472
 H       -16.0656280692        5.5873184020        3.3862811516
 H       -12.4833002313        6.9455545482        4.6451902242
 H       -12.2401973973        6.3354502657        3.0898690431
 H        -9.8287788563        5.8342046551        3.8853147098
 H       -10.2031301271        6.9173245505        5.1589596396
 H        -6.9119993518        8.8654488423        0.9594615970
 H        -8.5490406507        8.9752538353        0.2509500928
 H        -7.4265251245        8.2701513718       -1.3944009448
 H        -8.0296181197        6.7190438941       -0.8579338145
 H        -4.8354891657        4.3707359079        0.0682361500
 H        -5.3476209670        2.9111700764       -0.8381311754
 H        -7.4549123816        4.6141147661        0.8665377379
 H        -6.3034877467        3.4764163782        1.7293152873
 H       -10.8573127926        4.5619027097        1.5392632190
 H       -11.8030044352        3.1610614459        1.5828207577
 H       -11.4322743538        5.0976735303       -0.8739388656
 H       -12.9949580618        4.4707969424       -0.0697949267
 H       -10.0960491347        1.2115506257       -4.9968176724
 H       -11.8202388947        1.0456464903       -4.7960369706
 H       -11.4690823180       -0.7376366804       -3.1317052298
 H       -10.7904286818        0.5378464264       -2.2331904944
 H        -7.2287296125       -1.2999955611       -5.1493328400
 H        -8.0620072265       -1.7757659514       -6.6550671017
 H        -7.1410000814       -3.0056890131       -5.6914734157
 H        -6.7814393984       -1.8592665508       -2.9177988406
 H        -7.4360930309       -3.5993957691       -3.0163346894
 H        -7.7686186540       -2.4765934403       -1.6218149984
 H       -11.0929010286       -2.9887959132       -3.2470335134
 H       -10.4094834037       -2.5397201292       -1.6194261836
 H        -9.8041952975       -3.9636481296       -2.5586516842
 H       -14.2744562280        3.1475583552       -2.8233297709
 H       -13.6126601008        1.5178931027       -2.9061638641
 H       -13.7335095841        2.5241267438       -4.4161584790
 H       -12.4742700297        4.8040019712       -4.4487216026
 H       -11.3506031477        5.1601415065       -3.2362987672
 H       -13.1486206294        5.1821307517       -2.9608260568
 H        -9.7373395639        0.4445025268        1.1158818881
 H       -10.2298830699        1.1134835532        2.6361681651
 H        -8.6691874111        0.4000035266        2.3604397754
 H        -7.9943672284        2.9790970187        3.3962509751
 H        -9.7152716443        2.9013176968        3.5237256507
 H        -9.0830111024        4.2913153079        2.7035318616
 H        -5.3302826137        6.3020991659       -3.9638515194
 H        -5.4760222993        7.9548122793       -3.1559787538
 H        -6.9133529558        6.7883851511       -3.2861387817
 H        -3.4372386523        5.4804434080       -0.8767088120
 H        -3.4269701828        6.9965982616       -1.8986210000
 H        -3.4682556195        5.5152405864       -2.6215178533
 H        -8.8698915431       10.2578712699        3.8397766968
 H        -9.1757205404       10.2643784413        2.1008997836
 H        -7.4899118215       10.0424112810        2.7286778168
 H        -8.0531347913        8.1925234833        5.1762734338
 H        -6.7607579090        8.2345032475        4.1243863319
 H        -7.6603333346        6.7827613043        4.1442211102
 H       -13.4652368774        5.9528189529        6.3018621540
 H       -14.8401197376        4.8280229028        6.5251089194
 H       -14.9417170067        6.2692995986        5.5143012068
 H       -13.3988084969        2.0732528247        4.7979759181
 H       -14.8166670994        2.8083405985        5.4915375362
 H       -13.3925568080        2.9256610492        6.4180359979
 Na       -7.8750805577        2.4283149397       -2.2122950799
