117

 C       -15.9679316110        4.5161865714        3.3825243816
 C       -14.4646770706        4.3000644660        3.4709219114
 O       -13.8438813589        3.9023066869        2.4874832445
 C       -13.7163156404        4.4475830799        4.9094646347
 C       -12.2490619315        4.8468181087        4.7703120849
 O       -11.2876436693        4.2911648124        5.3208459059
 C       -11.9033085918        6.1612833524        4.0157881563
 C       -10.5003617794        6.6587301272        4.1785054401
 C       -10.1802216244        7.8229583176        3.2454379886
 O       -11.0075996794        8.3040519147        2.4683274316
 C        -8.6638127722        8.2760642592        3.0707426464
 C        -8.1701660787        7.5367694434        1.8177710068
 O        -7.9991253499        6.3480122307        1.9080697762
 C        -7.8421773321        8.3894089390        0.5751984869
 C        -7.3237724119        7.5037350255       -0.6339322104
 C        -5.8149890771        7.0735609789       -0.5875008118
 O        -4.9824998266        7.4787738549        0.2091404703
 C        -5.3922590201        6.1561492397       -1.7775835248
 C        -6.1272317675        4.8039198735       -1.5427663792
 O        -6.8959971356        4.4851107784       -2.4199073039
 C        -5.7392356657        3.8030859094       -0.4524364742
 C        -6.7575534268        3.6849693209        0.6662944414
 C        -7.5665337335        2.3020867618        0.7182157977
 O        -7.4050807821        1.5247025583       -0.1930545560
 C        -8.8981292344        2.4092439258        1.5663921817
 C        -9.8894257751        3.0637031693        0.4985194672
 O        -9.6012965853        2.9647611830       -0.6309001349
 C       -11.3395822608        3.6894745131        0.7862496016
 C       -11.9864385482        4.1703094223       -0.4777343574
 C       -12.1786621386        3.0024432488       -1.4045128411
 O       -12.3853712511        1.8830813416       -0.8950773649
 C       -12.2785478028        3.2185306772       -3.0246376784
 C       -10.8713758862        2.5750667630       -3.5556689873
 O        -9.8238867315        3.2137777660       -3.4342385942
 C       -10.8629737093        1.2245689586       -4.1855079047
 C       -10.6831209905       -0.0214005859       -3.1766725800
 C        -9.2647516868       -0.5209697198       -3.0513103242
 O        -8.3046761209        0.1679588030       -2.8076715544
 C        -9.0353168383       -2.1153477286       -3.2289899295
 C        -9.1214159471       -2.2736162092       -4.7814320786
 O       -10.2148785978       -2.4422197241       -5.2971541590
 C        -7.8466569079       -2.0573208668       -5.6359364004
 C        -7.6803165252       -2.5674586624       -2.6387059687
 C       -10.1277382670       -2.9911979565       -2.5502688271
 C       -13.5046222733        2.4427863084       -3.5268013453
 C       -12.3078322457        4.7363165976       -3.3345565376
 C        -9.4959096256        0.9842988397        1.8780412624
 C        -8.7721142369        3.3253763531        2.8530227529
 C        -5.8149386009        6.7818580631       -3.0497358481
 C        -3.8800086845        6.0440011850       -1.6290586934
 C        -8.6531400832        9.8041282546        2.9498081124
 C        -7.6832231365        7.8257346106        4.1514174690
 C       -14.3065646531        5.4944708780        5.8842403126
 C       -13.7173157583        3.0806663534        5.5453496342
 H       -16.4639672454        4.1246327375        4.3326965625
 H       -16.4178363360        3.8762670303        2.5736195734
 H       -16.2915096386        5.5586475495        3.3604440894
 H       -12.6854240449        6.9748776411        4.2952324655
 H       -12.1092722182        6.1050839753        2.9166643300
 H        -9.8375982606        5.8756242865        3.8623928636
 H       -10.3283266820        6.9256990141        5.2408927755
 H        -7.0846814019        9.1472381329        0.8111073499
 H        -8.7634921734        8.8677755047        0.1592973288
 H        -7.4668941618        8.1256002134       -1.5188582695
 H        -7.9780747545        6.6734460654       -0.7070524114
 H        -4.7917170942        4.0755849434        0.0301983635
 H        -5.5485750440        2.8634380730       -1.0553933085
 H        -7.5466181650        4.4881938520        0.5921126291
 H        -6.2976496206        3.6771414334        1.6212916560
 H       -11.1598591233        4.4629456137        1.5786809796
 H       -11.9064075335        2.9665658268        1.3678652380
 H       -11.3248728126        4.9265607403       -0.9391625179
 H       -12.9702208916        4.5409735596       -0.2534974602
 H       -10.1200940725        1.1145768588       -4.9302770211
 H       -11.8388628183        1.1441911790       -4.6230226337
 H       -11.1451250735       -0.8482324484       -3.6214735914
 H       -11.2354726842        0.0844014755       -2.1778152971
 H        -7.1561905241       -1.2429269244       -5.2107697393
 H        -8.0500452425       -1.8597753770       -6.6768200347
 H        -7.2505843130       -2.9816492752       -5.5660243338
 H        -6.9192145429       -1.7766856131       -2.7937818811
 H        -7.3132232151       -3.5497745833       -2.9540225831
 H        -7.8052719845       -2.5202421316       -1.5738087694
 H       -11.1281729077       -2.7668009086       -2.9849674328
 H       -10.0744048163       -2.8838349099       -1.4593192637
 H        -9.8907775169       -3.9935201452       -2.9113022347
 H       -14.3816222922        2.9952254098       -3.2513134951
 H       -13.5423834825        1.4644585023       -3.1164422561
 H       -13.4109783675        2.4441979325       -4.6293711566
 H       -12.7175243552        5.0539416604       -4.3028300028
 H       -11.3007051868        5.1797329023       -3.3416005227
 H       -12.9585557768        5.2103774833       -2.6513167501
 H        -9.6427158355        0.4874153046        0.9672590124
 H       -10.4096889763        1.0913912040        2.4052225395
 H        -8.8252954456        0.2707639490        2.2902743344
 H        -8.0731471851        2.8077287100        3.5843495788
 H        -9.7209533225        3.4164488318        3.3663034798
 H        -8.4092696943        4.3430430495        2.5166893861
 H        -5.1019858066        6.2997586909       -3.7918989267
 H        -5.5888136846        7.8449499229       -2.9966981232
 H        -6.8252910646        6.5611978446       -3.4226620136
 H        -3.6484286149        5.6049947811       -0.5712797665
 H        -3.4687143157        7.0620156841       -1.7792527919
 H        -3.3127245151        5.4399145529       -2.3000143665
 H        -9.0010504442       10.1923782638        3.8771774901
 H        -9.3561561766       10.1706529410        2.1742233171
 H        -7.6716105841       10.2296822652        2.7103245902
 H        -7.8237912080        8.4028908677        5.0046369254
 H        -6.6054697705        7.8928296603        3.9086540993
 H        -7.8062968103        6.7504357459        4.2540359776
 H       -13.4138371696        5.8974212166        6.4022378564
 H       -15.0574327261        5.0063541885        6.5491410028
 H       -14.8032366772        6.3972339467        5.4686610782
 H       -13.0177974373        2.4473332743        4.9760392969
 H       -14.7137257394        2.5689414795        5.4845653825
 H       -13.4298131708        3.1520478193        6.6075143730
 Na       -7.9829680310        2.5247466134       -2.2686893475
