117

 C       -15.9893011408        4.5405539465        3.4529381997
 C       -14.4901377931        4.2587287028        3.5821112141
 O       -13.8340830739        4.0394100208        2.5915698804
 C       -13.7348724708        4.4739111858        5.0161455836
 C       -12.2198418192        4.9808857946        4.7217346798
 O       -11.3329752382        4.3109283941        5.1848934724
 C       -11.9583574110        6.1733439863        3.8363170458
 C       -10.5400001175        6.6848820018        4.1049488050
 C       -10.0764262735        7.7980781772        3.1398570157
 O       -10.8976494392        8.3276296410        2.4596385052
 C        -8.5691296636        8.3348159432        3.1022047037
 C        -7.9856794470        7.6519637392        1.7618990141
 O        -7.9605507776        6.4048984459        1.7729475434
 C        -7.8420019878        8.4004354986        0.4995529921
 C        -7.3001860931        7.4983396054       -0.6476567217
 C        -5.8623184374        7.1458417619       -0.5673141547
 O        -5.0740605903        7.4645127120        0.2517063800
 C        -5.3479493113        6.1023402584       -1.7549855827
 C        -6.0077122324        4.6474543054       -1.6449955006
 O        -6.9371900897        4.3843044950       -2.4372197541
 C        -5.6558064606        3.6606237696       -0.4744640962
 C        -6.6791751634        3.7235350037        0.6125446940
 C        -7.5923352432        2.4296720429        0.6568364682
 O        -7.4185433947        1.4805903995       -0.0684230187
 C        -8.8760999797        2.4301914937        1.4924568862
 C        -9.8615135449        3.0243078865        0.4843211869
 O        -9.7140867178        3.0139323533       -0.7424560752
 C       -11.2809349278        3.5830554523        0.8558775587
 C       -11.9186099130        4.1436948713       -0.4302441464
 C       -12.2681425207        2.9388866291       -1.3987779051
 O       -12.5071439255        1.8555733740       -0.9973026407
 C       -12.2159061053        3.1755096719       -2.9614744065
 C       -10.8786089515        2.5455606437       -3.4728154820
 O        -9.9069498367        3.2740068851       -3.4484110386
 C       -10.8260120761        1.1434102751       -4.1499095481
 C       -10.7769612850       -0.0973662030       -3.2253275392
 C        -9.3287444079       -0.5513217186       -2.8897204054
 O        -8.3644817757        0.1702777665       -2.6979040528
 C        -9.0097731218       -2.0641626828       -3.0937867383
 C        -9.1362529163       -2.1803392411       -4.7046137632
 O       -10.2256462681       -2.3792221214       -5.1661702926
 C        -7.9049613245       -2.0806987932       -5.5628254242
 C        -7.6291093563       -2.4878291675       -2.6111297578
 C       -10.0864487432       -2.9899839883       -2.5566799252
 C       -13.3822017894        2.4312938630       -3.7343812986
 C       -12.2825829488        4.6801099790       -3.2952339586
 C        -9.4649557711        1.0481969050        1.7884203614
 C        -8.6424420021        3.2122161012        2.8224763709
 C        -5.7577407466        6.7255425118       -3.0943761554
 C        -3.7835451647        5.9995299129       -1.5296948396
 C        -8.6914806950        9.9084696979        3.0133351380
 C        -7.7081937327        7.8502762668        4.2840322966
 C       -14.4895267012        5.5141622372        5.8470387576
 C       -13.7392571204        3.0857516868        5.6882241746
 H       -16.5681091992        4.2053376349        4.3243668469
 H       -16.4543511327        3.9575157677        2.6057377682
 H       -16.1959139306        5.6206952024        3.4248857862
 H       -12.7838557998        6.9717377203        3.8977410192
 H       -12.1222937861        5.8849282111        2.7441059872
 H        -9.8389702096        5.8005865887        4.1293569687
 H       -10.6083020604        7.2079747828        5.1208856432
 H        -7.1238708770        9.2049632666        0.6875762074
 H        -8.8480620167        8.8118257160        0.1937221077
 H        -7.5787989981        7.8975471587       -1.6507277468
 H        -7.8365923565        6.5590922088       -0.5153208046
 H        -4.6570409599        3.7742332448       -0.0440123463
 H        -5.7007948878        2.6886419813       -0.9530893181
 H        -7.4084552619        4.5029918616        0.4361496002
 H        -6.2769573362        3.7546564852        1.6364410443
 H       -11.2309002114        4.1994720386        1.7606148313
 H       -11.8260316348        2.7534116145        1.2410701371
 H       -11.1980966624        4.7148043941       -0.9350563636
 H       -12.7905929580        4.7034014718       -0.1758011766
 H        -9.8412467418        1.0832187549       -4.6255358661
 H       -11.6406414432        1.1425605859       -4.8834785624
 H       -11.2538557240       -0.9646286929       -3.6492876037
 H       -11.3185202413        0.0857665140       -2.2577063163
 H        -7.2906782658       -1.2442409830       -5.2918623271
 H        -8.1485005576       -2.0186073387       -6.6662328882
 H        -7.3344075664       -2.9463169436       -5.4003089490
 H        -6.9800218366       -1.7424354365       -2.8915838149
 H        -7.3430649464       -3.4348718736       -3.0157362637
 H        -7.5376504885       -2.5344540519       -1.5242965563
 H       -11.0346953590       -2.5216841824       -2.7439093021
 H        -9.9065195227       -3.0445457345       -1.4452238705
 H       -10.0985789481       -3.9247800822       -3.0888303064
 H       -14.3517127308        2.9287598529       -3.5518406556
 H       -13.4362345807        1.4019908660       -3.3858578436
 H       -13.1623773328        2.5447370006       -4.7706101104
 H       -12.7413322165        4.8167939481       -4.2776622338
 H       -11.3722089146        5.2687930872       -3.4013793059
 H       -13.0080764489        5.1305604077       -2.6233074607
 H        -9.3511709186        0.3423211689        0.9660223043
 H       -10.4860717575        1.1574331408        2.1340604553
 H        -8.7954722777        0.4646636885        2.4484289948
 H        -8.2420475981        2.5897979316        3.5690724829
 H        -9.5997004401        3.6893133298        3.2111795128
 H        -7.9290119630        4.0523562059        2.5144186348
 H        -5.1552290945        6.2528913404       -3.8514393506
 H        -5.5557045675        7.7845101663       -3.0923714080
 H        -6.7683530711        6.5062623592       -3.3618557436
 H        -3.4256728839        5.6190903448       -0.6014730454
 H        -3.2482104591        6.8988295574       -1.8969731657
 H        -3.4375366406        5.1661033246       -2.2430690140
 H        -9.0890747147       10.3380057333        3.9449394376
 H        -9.4567071748       10.1074608469        2.2481281730
 H        -7.8601046236       10.4090959017        2.6787395755
 H        -7.7563675238        8.5870642325        5.1169090917
 H        -6.6390731058        7.7932149268        3.9839118508
 H        -7.8489473899        6.7855499375        4.5242685473
 H       -13.8671215944        5.8481269260        6.7298913965
 H       -15.5506477550        5.2639117618        6.0622636389
 H       -14.5594486375        6.4131746090        5.2099417392
 H       -12.9863817370        2.5129776295        5.1550644523
 H       -14.6764977877        2.4665445633        5.6975057942
 H       -13.3915183165        3.2428446340        6.7530228786
 Na       -8.1196016305        2.4862785828       -2.3660168626
