117

 C       -16.0228420767        4.4102855813        3.5222939319
 C       -14.5132999558        4.3815427292        3.5945355232
 O       -13.7414064507        4.1697446654        2.6570040556
 C       -13.7954034020        4.6756402855        5.0606095740
 C       -12.3187665301        5.0003141788        4.7631271205
 O       -11.3577767416        4.2346974644        4.9762485363
 C       -12.0070917791        6.2382966898        3.7863391990
 C       -10.5474051631        6.7753557411        4.0013766342
 C       -10.1181864365        7.9084085027        3.0654296515
 O       -10.8389193609        8.3708424442        2.1876722384
 C        -8.5612060005        8.4013820159        3.0407366300
 C        -8.0199105176        7.5980895930        1.8114776678
 O        -7.7709734421        6.4208962270        1.7852636707
 C        -7.7537070565        8.4475086295        0.4557301942
 C        -7.4366986152        7.5425165301       -0.7769837536
 C        -5.9313471105        7.0043476186       -0.6632654528
 O        -5.2554577892        7.3607749632        0.3165791757
 C        -5.3044296481        6.0054648517       -1.6824125281
 C        -5.9811322945        4.5543392666       -1.6535079582
 O        -6.8306441873        4.3090117442       -2.4606546938
 C        -5.4555243760        3.5782516665       -0.6173423675
 C        -6.4280637406        3.6916181668        0.6437771270
 C        -7.3825232042        2.3584452065        0.6259548549
 O        -7.1240128877        1.4059853828       -0.0712203870
 C        -8.8005515815        2.4598618306        1.4254780420
 C        -9.9392904465        3.0790349210        0.4054492613
 O        -9.6805051227        3.0401368316       -0.7527068899
 C       -11.3974957132        3.4892363184        0.7616591668
 C       -12.3352789699        3.9072254015       -0.4178175457
 C       -12.4373182617        2.8161887287       -1.4229678784
 O       -12.7668096583        1.6570141255       -1.0840345077
 C       -12.2256014520        3.1297706575       -3.0447943385
 C       -10.8435625533        2.6627004189       -3.5716740052
 O        -9.9050385113        3.4450900226       -3.5768318882
 C       -10.6193483242        1.2141114743       -4.0672974356
 C       -10.8526105685        0.0646031892       -3.0317006419
 C        -9.4229186802       -0.6037431721       -2.7839441673
 O        -8.4874844373        0.0773046772       -2.4391776329
 C        -9.0593265865       -2.0491710444       -3.0529269996
 C        -9.2212605818       -2.2094196165       -4.5872653052
 O       -10.3236183036       -2.2104544027       -5.1069830285
 C        -7.9353925123       -2.1306833899       -5.4200645380
 C        -7.6226495951       -2.2881714996       -2.5342717122
 C        -9.9781103542       -3.0595697706       -2.2566790768
 C       -13.4463444991        2.4023781157       -3.6726644235
 C       -12.2994428201        4.6677618552       -3.3556532623
 C        -9.2253908724        0.9447977686        1.6392005268
 C        -8.8335939509        3.3181994682        2.6867536235
 C        -5.4681707977        6.5818962342       -3.0545088021
 C        -3.7277488152        5.8420343231       -1.5393516999
 C        -8.4646541588        9.9004627098        2.9778271624
 C        -7.8392108608        7.9450144951        4.3383567302
 C       -14.5511148375        5.7160524313        5.9424973034
 C       -13.7922256448        3.3952376154        5.8669737012
 H       -16.5422290734        3.7715798227        4.2192604565
 H       -16.4132063355        4.0422232548        2.6229387771
 H       -16.3258872650        5.4081223643        3.7112122436
 H       -12.6624242308        7.0456944640        3.8572316337
 H       -12.1918200728        6.0029758225        2.7892049255
 H        -9.7976360358        6.0182188594        3.8131229541
 H       -10.4714452269        7.1712906842        4.9893077514
 H        -6.9179699605        9.1534595399        0.4799134377
 H        -8.6505224830        8.9926923770        0.2530376467
 H        -7.5095841371        8.1359634762       -1.6899714116
 H        -8.2093159402        6.7333436869       -0.8280972819
 H        -4.5147664265        3.8909109301       -0.2142227618
 H        -5.4094193724        2.5211666269       -0.9254009153
 H        -7.1526498845        4.5161958234        0.6884406868
 H        -5.8578665375        3.5914058656        1.5444295903
 H       -11.3638074854        4.2267019253        1.5473692016
 H       -11.7956143754        2.6548248422        1.3650358191
 H       -12.0143300459        4.8826996329       -0.8915960443
 H       -13.2866168739        3.9610409670        0.1409321137
 H        -9.5964696595        1.0735026758       -4.4851042037
 H       -11.4379576728        1.1130091181       -4.8209909974
 H       -11.4185354607       -0.7221391255       -3.5499703886
 H       -11.4295476745        0.3555029703       -2.1600452244
 H        -7.4531318025       -1.1422763580       -5.3842694775
 H        -8.2124087487       -2.2519539758       -6.4024460454
 H        -7.2237995690       -2.9481623736       -5.2109259291
 H        -6.9107897210       -1.5794485624       -3.0576039671
 H        -7.3480973739       -3.3467680024       -2.6297259947
 H        -7.5219236849       -2.1026355350       -1.4899376872
 H       -11.0217490621       -2.7623362803       -2.3810414877
 H        -9.6767046677       -3.0451619756       -1.2571829885
 H        -9.8425167839       -4.0338695457       -2.7276023325
 H       -14.3472655624        2.8709487647       -3.2956146971
 H       -13.4634112386        1.3787795274       -3.3134745111
 H       -13.4828311394        2.6486720025       -4.7769499564
 H       -11.9550794903        4.9226731007       -4.3636465401
 H       -11.4981345421        5.1343724294       -2.7647838216
 H       -13.2298727127        5.1669353870       -3.1024541376
 H        -9.0128534170        0.3133123078        0.7675107769
 H       -10.3129391098        0.9100417122        1.9207363436
 H        -8.5958745883        0.3633410178        2.2950503720
 H        -8.0203368743        2.9709738770        3.3835799232
 H        -9.7711335309        3.1567739988        3.0586265568
 H        -8.6672032714        4.3409638038        2.4817670239
 H        -5.0865900140        5.8499692607       -3.7656502034
 H        -4.9138334810        7.4776506662       -3.2048952256
 H        -6.5133159552        6.7416804993       -3.2551985938
 H        -3.4732637977        5.6392063134       -0.4518089379
 H        -3.1982610035        6.7385098466       -1.7682668705
 H        -3.3489419099        5.0331648447       -2.0396429050
 H        -8.8592753770       10.3595899470        3.8614074171
 H        -8.9650008502       10.3873721750        2.1402848040
 H        -7.3676904256       10.1889345753        2.7988265673
 H        -8.3928011178        8.2666668976        5.2160048426
 H        -6.8095650100        8.3073628450        4.4144775564
 H        -7.6533638203        6.8707688333        4.2542874907
 H       -14.2354346626        5.6330993020        6.9549593343
 H       -15.6252754662        5.5983469881        5.9551588974
 H       -14.4113619636        6.7272430474        5.5837949291
 H       -13.3985065763        2.5923062531        5.2360649683
 H       -14.7720769355        3.0720343747        6.1210145107
 H       -13.1986368058        3.5039016755        6.7349025593
 Na       -8.1948401052        2.3469418060       -2.4216020689
