117

 C       -16.0721761338        4.1626135984        3.7844686603
 C       -14.6165356785        4.5838726941        3.6651284380
 O       -14.0603613981        4.7213411304        2.5999820469
 C       -13.8334980707        5.0158944173        4.9081805519
 C       -12.2976501252        5.3527242021        4.4529155641
 O       -11.5042317719        4.4508286104        4.6690139796
 C       -11.8825480681        6.6042384429        3.8349156026
 C       -10.3645232429        6.8759377243        3.9572371860
 C        -9.9503064342        7.9003981703        2.8588291394
 O       -10.7174560317        8.2579324990        2.0124576676
 C        -8.4786324652        8.3780994088        2.8017420202
 C        -7.9968146961        7.4996625220        1.5402095335
 O        -7.7767505955        6.3086173627        1.7983413821
 C        -7.8986541700        8.0970757300        0.1760979913
 C        -7.1596121806        7.2260942134       -0.8277970172
 C        -5.6877320948        6.8461764178       -0.5238297048
 O        -5.1457686111        7.0069209495        0.5220255682
 C        -4.9903291179        6.0472753037       -1.6368494358
 C        -5.5912612639        4.5511237363       -1.4356505128
 O        -6.4803196198        4.1687087945       -2.2095825038
 C        -5.2781233789        3.7087904973       -0.2011476018
 C        -6.5302740464        3.7424191764        0.7544702902
 C        -7.4951235947        2.5477963559        0.5323090525
 O        -7.2876919627        1.6242661167       -0.2539952307
 C        -8.9031778061        2.4259523679        1.2850210281
 C       -10.0424461322        2.8896772449        0.3669063949
 O        -9.8239893766        3.2635643537       -0.7982367716
 C       -11.4625019273        2.8823803588        0.8468949314
 C       -12.3128922906        3.4785329373       -0.2970605585
 C       -12.5173469092        2.4728280356       -1.4941389918
 O       -12.8222653620        1.3443667464       -1.3089084268
 C       -12.4781891309        3.0910310881       -3.0578611814
 C       -11.0334998380        2.5227261092       -3.5226630330
 O       -10.0685458963        3.2732125846       -3.3869261752
 C       -10.7851460520        1.1007633255       -4.0868990196
 C       -10.7263882537        0.0835935652       -2.8563704030
 C        -9.3247686146       -0.5394620996       -2.7463889959
 O        -8.3112794403        0.1593930419       -2.5728169222
 C        -9.1523660377       -2.0250197458       -2.7876126009
 C        -9.4005150000       -2.3667132941       -4.4702855426
 O       -10.5015035933       -2.1281323836       -4.9046684852
 C        -8.1578946267       -2.6357531621       -5.2548195649
 C        -7.7130878208       -2.4662498344       -2.3154547993
 C       -10.2006510521       -2.8335681828       -1.9019323360
 C       -13.5995756726        2.3639236661       -3.8008138707
 C       -12.4031169295        4.6025911610       -3.1944214846
 C        -9.1584977487        0.9691722849        1.7582060166
 C        -8.8848531321        3.2641245492        2.6234331347
 C        -5.4220666786        6.6407771960       -2.9686332689
 C        -3.4731002980        6.1086586079       -1.4644298443
 C        -8.4411365123        9.9187333466        2.5123902790
 C        -7.5771527118        7.9526990236        3.9798000182
 C       -14.5835017358        6.2367594038        5.4885270241
 C       -13.5903093343        3.9063071277        6.0111627749
 H       -16.1425294888        3.1014725695        3.7694062596
 H       -16.6492070125        4.3910031378        2.8984334487
 H       -16.6446887848        4.5434546169        4.5851742728
 H       -12.3578266140        7.3936859221        4.4239865280
 H       -12.3309649880        6.6718829681        2.8994599005
 H        -9.8069700140        5.9958358067        3.8313596964
 H       -10.0963081401        7.2617323353        4.9295420848
 H        -7.4096202774        9.0337552111        0.3378594892
 H        -8.8677309702        8.4196454559       -0.2379912614
 H        -7.3790278562        7.5691817757       -1.8679340120
 H        -7.6904777548        6.2712144764       -0.7852957850
 H        -4.4667570161        4.1104391023        0.3841911395
 H        -5.0966116044        2.6822901725       -0.5224846191
 H        -7.1152356435        4.6973376046        0.6244198253
 H        -6.3351904115        3.6816645796        1.8022101210
 H       -11.4401327784        3.3541779032        1.8619519087
 H       -11.7658697222        1.8520657048        1.0394875932
 H       -11.9587748664        4.5029639273       -0.6086457767
 H       -13.3979912747        3.5629579427        0.0004596987
 H        -9.8155159628        1.1190435554       -4.6531422471
 H       -11.6215272025        0.6884055616       -4.7043128830
 H       -11.3670038984       -0.7027930314       -3.0834605769
 H       -11.0692799506        0.5468538608       -1.8925093658
 H        -7.3530674153       -1.9964681030       -4.9541537463
 H        -8.3103160484       -2.4200506389       -6.3468412262
 H        -7.8850115938       -3.6310713323       -5.1110159824
 H        -6.9350362179       -1.8543366109       -2.6873998453
 H        -7.4642014734       -3.4875187353       -2.6365996497
 H        -7.7055139118       -2.4207507185       -1.1932323427
 H       -11.1811314279       -2.8281889577       -2.3216661679
 H       -10.1969292779       -2.5026539328       -0.8420209710
 H        -9.7828443090       -3.8091448291       -1.9086737984
 H       -14.5988286004        2.8290435055       -3.5685875228
 H       -13.5845437581        1.3369397518       -3.3774429492
 H       -13.3994080760        2.4407069993       -4.8677037960
 H       -12.5751371733        4.8498466336       -4.2507033666
 H       -11.5114763284        5.0788662655       -2.7756047382
 H       -13.1876517867        5.0811384097       -2.6312145821
 H        -9.2712819187        0.2352030553        0.9211568401
 H       -10.1708913165        0.8991200352        2.1943387312
 H        -8.5313684825        0.6010087873        2.6326509684
 H        -8.2197053614        2.8152500789        3.2309104594
 H        -9.8655896807        3.3940347834        3.1070760142
 H        -8.4855838183        4.2146488449        2.3033277746
 H        -4.6927766352        6.2518370951       -3.6388349479
 H        -5.3677263741        7.6945747617       -3.0314092410
 H        -6.3699099151        6.3154571812       -3.3017831190
 H        -3.1082751425        5.9768110747       -0.5007503927
 H        -3.1642569055        7.0983861356       -1.6910525240
 H        -2.9712262460        5.3774167403       -2.1408502504
 H        -8.7583296822       10.6629245999        3.2756317309
 H        -9.0346525999       10.1953156865        1.5948403520
 H        -7.4530586861       10.2468876358        2.3403069111
 H        -7.7517436409        8.5675848551        4.8680720624
 H        -6.5304571741        8.0304184272        3.6381531600
 H        -7.8485760579        6.9725340055        4.3607868304
 H       -13.9170304648        6.5356038255        6.3058276678
 H       -15.4786326228        6.0147569936        6.0559980220
 H       -14.7607243060        7.0758664016        4.8618421765
 H       -12.9367311585        3.1318812175        5.7261248607
 H       -14.5761739613        3.4728958338        6.2214523139
 H       -13.1816395385        4.3154524532        6.9462349932
 Na       -8.1302411003        2.5762050260       -2.4068552633
