117

 C        -0.8407292645        6.0433916006        2.4877899888
 C        -1.4484639081        7.0315805242        3.5731693012
 O        -1.2022094273        6.7203827632        4.6711772142
 C        -2.3956981367        8.2501816425        3.2245347529
 C        -3.8357959195        7.6304445534        2.9969710130
 O        -4.0343008947        7.1847449901        1.8832197410
 C        -4.9983581569        7.8319394303        4.0225261703
 C        -5.8925133753        6.5811869659        4.0876335829
 C        -7.3728285113        7.0150410429        3.6816458248
 O        -7.5838669538        8.1307101707        3.2873004652
 C        -8.5477194526        6.1055754831        3.9291486859
 C        -9.9549135471        6.6346340006        3.3033051826
 O       -10.9907829382        6.4853593419        3.8909343461
 C        -9.9228942828        6.9183311724        1.7440567467
 C       -11.3435102319        6.9726511981        1.1837715930
 C       -11.9428773140        5.6004548610        0.8188575737
 O       -11.1860296112        4.7122086201        0.4111144552
 C       -13.5036939926        5.4027570900        0.9694564011
 C       -14.0424747388        4.2448700589        0.0753363489
 O       -13.4364752372        3.7778351828       -0.8859792740
 C       -15.3987363771        3.6735864890        0.4437013992
 C       -15.4776664746        2.0754884229        0.5085747270
 C       -14.1307562529        1.3860985166        0.5406064591
 O       -13.1800779220        2.0000206929        1.0319992980
 C       -13.9055672667        0.0124879457       -0.3756252678
 C       -13.3648606423        0.2662076924       -1.8279284271
 O       -12.6026434838        1.2031798991       -2.0761472320
 C       -13.8181204988       -0.7509626593       -2.9654564201
 C       -12.6920742137       -0.7886328352       -3.9873381414
 C       -12.7884784636        0.5129331842       -4.9605999281
 O       -13.6062686938        1.3820603609       -4.9413607924
 C       -11.4779243473        0.6734011023       -5.8401876004
 C       -10.2639584814        0.9217545477       -4.8766035769
 O        -9.6733814657       -0.0095215831       -4.3304996554
 C        -9.9280225357        2.4102702335       -4.7706417068
 C        -8.6041953841        2.7450368906       -4.0220016809
 C        -8.8821890070        2.6430159437       -2.4475210940
 O        -9.7354199273        3.3326401064       -1.9535152567
 C        -8.1720619380        1.4260619545       -1.5284106724
 C        -9.1496674877        0.2337013761       -1.3084568506
 O       -10.1926630892        0.4198611317       -0.7074979251
 C        -8.6804781393       -1.1796075828       -1.7507714469
 C        -6.9516982628        0.8806417272       -2.2712580137
 C        -7.8067624263        2.0361448225       -0.1320593878
 C       -11.3484321321       -0.6643717263       -6.7720933681
 C       -11.8732071991        1.9016832971       -6.7483797029
 C       -12.8622934354       -0.9289065806        0.1039371048
 C       -15.2836768559       -0.7385462426       -0.4777294811
 C       -13.6306722082        5.4666933251        2.5499146012
 C       -14.2680814796        6.7120820547        0.3938899452
 C        -8.3400707493        4.6570256946        3.3313233320
 C        -8.7068658879        5.9468664641        5.4020828656
 C        -2.4113407207        9.2646233248        4.4367530043
 C        -1.9353511340        9.0453877405        2.0200917935
 H        -1.1331491528        6.2873923277        1.5080913099
 H        -1.0280044381        5.0030781978        2.7495690270
 H         0.2324180340        6.1858202622        2.4227417037
 H        -5.4713520769        8.6467469606        3.5252001494
 H        -4.7322008956        8.1434252962        5.0425636922
 H        -5.7630442660        6.0398019164        4.9873063880
 H        -5.5235188871        5.9286008271        3.3140300785
 H        -9.3421715289        6.2095079924        1.1647709289
 H        -9.4245470961        7.9372697437        1.6677247804
 H       -11.3366252619        7.6549705913        0.2832617766
 H       -11.9772419690        7.4092142465        1.9439996396
 H       -16.1265812212        3.9095327325       -0.2579205095
 H       -15.7715105637        4.2188953108        1.3387893938
 H       -15.9489006455        1.7580513677       -0.4307320048
 H       -16.1062850361        1.6509733786        1.2826265596
 H       -14.6397464571       -0.1988650635       -3.3215092002
 H       -14.0193114652       -1.7020961833       -2.4891150681
 H       -12.7109835167       -1.7607325635       -4.5211500628
 H       -11.6892347531       -0.8177717769       -3.5260977618
 H       -10.7180895308        2.8953610389       -4.2351241741
 H        -9.9097545354        2.8086809218       -5.7627491239
 H        -8.3702823964        3.7956767901       -4.1830271561
 H        -7.7198722853        2.1478832282       -4.3795862336
 H        -8.3836272473       -1.0183436307       -2.7409976625
 H        -9.6081751788       -1.8022995188       -1.6522169533
 H        -7.9121917145       -1.5728002002       -1.1381916992
 H        -6.2929000185        1.7197371756       -2.4976866307
 H        -7.2609310777        0.3946894944       -3.2081478258
 H        -6.4353681286        0.2031038449       -1.7244415728
 H        -8.5204490504        2.6942105015        0.2429476348
 H        -6.9024534284        2.6548666362       -0.2904169158
 H        -7.5672357478        1.2804863746        0.5420810324
 H       -12.3317935446       -1.1082738635       -7.1319497332
 H       -10.7596071278       -1.4905551182       -6.4400349050
 H       -10.8088710339       -0.4056970258       -7.7069707640
 H       -12.0461073610        2.7269401509       -6.1255525896
 H       -12.8234707593        1.7739601465       -7.2935387161
 H       -11.1547312154        2.1185762147       -7.5052027479
 H       -13.0985657546       -1.4907339408        1.0274366074
 H       -11.9030664456       -0.4361297538        0.1605206401
 H       -12.7323882055       -1.6444488811       -0.7092370878
 H       -15.6733663928       -0.9527613680        0.5530694642
 H       -15.2679417740       -1.7529157302       -0.9121058368
 H       -15.8828421311       -0.1380339966       -1.1513428739
 H       -14.6234952596        5.2570173853        2.8963330279
 H       -13.4153649471        6.4872803080        2.7873892238
 H       -12.9491919657        4.7457299663        3.0230430578
 H       -13.9470769232        6.9012018855       -0.6088456366
 H       -13.9299489366        7.5241708331        0.9918761469
 H       -15.3447827769        6.5704332291        0.4353664804
 H        -7.3793438609        4.3693216769        3.6575983855
 H        -8.3534307442        4.5843383437        2.2538330258
 H        -9.1211407207        4.0918778994        3.7615876092
 H        -9.7654053325        6.0969123990        5.6423421435
 H        -8.1944287275        6.6069122230        6.0808594164
 H        -8.4244182234        5.0175904251        5.8012502757
 H        -1.9950314324        8.7578115149        5.3052513008
 H        -3.3905354739        9.6342062782        4.6545607896
 H        -1.8615664390       10.1988594838        4.1562530037
 H        -2.7479189040        9.6001058854        1.5104207942
 H        -1.5519761520        8.4308297381        1.1905753629
 H        -1.0114389564        9.6016570254        2.3804882757
 Na      -11.1562061641        2.5560829274       -0.2820113079
