117

 C       -15.9700097646        3.8802363288        3.8306824121
 C       -14.6727743160        4.6420636885        3.6232622771
 O       -14.2298822747        4.9220297403        2.5163634549
 C       -13.8205940919        5.1118976563        4.9347257690
 C       -12.3332661403        5.2982523525        4.4812473746
 O       -11.4867554212        4.4411986864        4.3630084230
 C       -11.8750045550        6.7291198350        3.9270394326
 C       -10.3963443598        7.0932108346        3.9410452999
 C        -9.9496556778        7.9752946411        2.8152922875
 O       -10.6891945368        8.3519632671        1.9356440458
 C        -8.3635412546        8.4466780841        2.7353653324
 C        -7.9602004087        7.4932975058        1.5513348571
 O        -7.9716879359        6.3000280117        1.6894441700
 C        -7.7063386900        8.1543910857        0.1194916801
 C        -7.1339614829        7.1184400894       -0.9053733072
 C        -5.7305956655        6.8683778379       -0.5662525269
 O        -5.1861826146        7.1607571388        0.4734834576
 C        -4.9461674067        5.9750347746       -1.6622355394
 C        -5.6543027952        4.5274216790       -1.4883328165
 O        -6.3444670491        4.0822240655       -2.3769443670
 C        -5.3911969761        3.8844479206       -0.1226174052
 C        -6.5049348389        3.7696444110        0.9598642385
 C        -7.5891356631        2.6114928998        0.6488254542
 O        -7.3313359741        1.8275111058       -0.2408683062
 C        -8.9047860272        2.3800803352        1.4664651750
 C        -9.9521183953        2.8638789294        0.5110704754
 O        -9.5816825640        3.3176142650       -0.5364379764
 C       -11.5101058321        2.9191978107        0.8475832117
 C       -12.5007832654        3.4574290989       -0.2208239093
 C       -12.6676866558        2.5314535617       -1.4407730218
 O       -13.0560197012        1.3541044412       -1.2574464648
 C       -12.4786797024        3.0092648471       -2.9691361151
 C       -11.0437946893        2.4963732661       -3.5002171596
 O       -10.1168900089        3.2934682697       -3.4555871831
 C       -10.8733834449        1.0862706893       -3.9582313407
 C       -10.6512491057        0.0417546492       -2.8679786727
 C        -9.2411409234       -0.4936307095       -2.9157818155
 O        -8.2659056126        0.1731817889       -3.1846468252
 C        -9.1187375687       -2.0602129711       -2.7303024350
 C        -9.4214382001       -2.5389388435       -4.2719256345
 O       -10.5071909117       -2.2806950950       -4.7401366488
 C        -8.1915075212       -3.0057278116       -5.1827450019
 C        -7.7577001828       -2.5676885941       -2.2727610399
 C       -10.2819830998       -2.7836711304       -1.9890134836
 C       -13.6326355409        2.3154403927       -3.7866580170
 C       -12.5802413768        4.5396041728       -3.1961260956
 C        -8.9473088978        0.8525772481        1.7956526825
 C        -8.9386835572        3.2356931492        2.7963869147
 C        -5.0635648774        6.3549158403       -3.0799754910
 C        -3.4152435771        5.9867778734       -1.2475636506
 C        -8.2570751148        9.9210447025        2.3624376551
 C        -7.4085357142        8.1648074825        3.9898560614
 C       -14.3784859311        6.4626129912        5.4987919471
 C       -14.0476559002        4.0734761523        6.0581526960
 H       -15.9130166347        2.7767296578        3.6210581897
 H       -16.7907539794        4.2255170450        3.1788606959
 H       -16.4195416879        4.0177920641        4.8131904723
 H       -12.3781033347        7.6278440615        4.3508670345
 H       -12.2412890970        6.5789992234        2.8275251113
 H        -9.8067486545        6.1706180021        4.0878602719
 H       -10.1282420712        7.7363007586        4.7791052322
 H        -7.2204044411        9.1617717630        0.0376470379
 H        -8.6948886019        8.4386463278       -0.2578511124
 H        -7.2211003637        7.4830700586       -1.8925138058
 H        -7.7171045885        6.1911099697       -0.9237046822
 H        -4.5661186458        4.3563733188        0.4507939937
 H        -5.1729298197        2.7994620111       -0.3067267569
 H        -6.9173787867        4.7127774143        1.2763451567
 H        -5.9933213280        3.3749499867        1.8925578657
 H       -11.6900794537        3.3776576992        1.8236357086
 H       -11.8010722377        1.8383160210        1.0077629830
 H       -12.2587285222        4.4488193882       -0.5688926966
 H       -13.4537388517        3.5407959862        0.2921267806
 H       -10.0077106093        1.0704665698       -4.5741099878
 H       -11.6927553072        0.8364332072       -4.6041176381
 H       -11.3706968231       -0.8200343854       -2.8627070615
 H       -10.7524956637        0.5651941512       -1.9348331901
 H        -7.3751406364       -2.2400075841       -5.0355153991
 H        -8.4246660639       -2.9080733735       -6.2329266230
 H        -7.7335203601       -4.0243742857       -4.9857297790
 H        -6.9217718450       -2.1676088868       -2.9512716407
 H        -7.6907743283       -3.6538456081       -2.5018791333
 H        -7.5476328017       -2.3369479657       -1.2369174214
 H       -11.2318680752       -2.3176472958       -2.2988366807
 H       -10.1650177091       -2.7448702340       -0.9304727997
 H       -10.3049596337       -3.8658073656       -2.2445840715
 H       -14.5197243178        2.7205490080       -3.3586617599
 H       -13.6736748365        1.2315109185       -3.7586463607
 H       -13.4812906107        2.7121756482       -4.8213470196
 H       -12.2993238037        4.7372597778       -4.2218972719
 H       -11.9778723921        5.1262425220       -2.5152446348
 H       -13.5849905391        4.9762814152       -3.1086710550
 H        -8.9819440115        0.3914334375        0.8792053459
 H        -9.7870076142        0.4299268459        2.2711457825
 H        -8.1617938393        0.6193244757        2.4042837048
 H        -7.9036473787        3.1177115013        3.3238724403
 H        -9.6102389637        2.6914342292        3.4397229256
 H        -9.2709511437        4.2669175539        2.5674228573
 H        -4.3319914691        5.7167928924       -3.6588086146
 H        -4.8346006529        7.4480795454       -3.2080608707
 H        -6.0736151662        6.1814782705       -3.5501462631
 H        -3.0947948665        5.4653369577       -0.2464846095
 H        -2.9998062589        7.0210119915       -1.2077600845
 H        -2.8954460083        5.4398125140       -1.9915366923
 H        -8.4642275474       10.5828976575        3.1702907214
 H        -8.9336533303       10.2116792638        1.5935391655
 H        -7.2204820507       10.3137230370        2.1219003522
 H        -7.8209377157        8.2619842627        4.9498987179
 H        -6.5961128609        8.8512552125        3.9239447793
 H        -7.0733779443        7.1498289495        3.9719541167
 H       -13.7764550174        6.9383558260        6.2586642928
 H       -15.3928155423        6.3547176415        5.8716082242
 H       -14.3695581026        7.2301723958        4.6986911923
 H       -13.3193464175        3.2628150198        5.9273938568
 H       -15.0143722956        3.7110277188        6.3084838371
 H       -13.6540372057        4.5337186441        6.9272312087
 Na       -8.1489801736        2.4913358087       -2.4176932732
