117

 C       -15.7910511095        3.8100527249        3.7855231781
 C       -14.6229960571        4.7615747001        3.5948933297
 O       -14.2496072253        5.1382613330        2.5237488973
 C       -13.8470606933        5.3126930768        4.8849304932
 C       -12.3642385006        5.4441845662        4.4272657555
 O       -11.6704779947        4.4694715373        4.2213906315
 C       -11.9012555532        6.8136832391        3.8924080922
 C       -10.3155549567        7.0793553396        3.9643574935
 C        -9.9082991846        8.1108299998        2.8213091968
 O       -10.7133971797        8.5433340586        2.0161910400
 C        -8.4342457412        8.4982302215        2.7050708111
 C        -7.9786157567        7.5524182543        1.4285884599
 O        -8.0424785753        6.2881359234        1.5506978015
 C        -7.7398618891        8.1737227605        0.0722000668
 C        -7.1893872800        7.2374253738       -0.9980459541
 C        -5.7481903460        6.7388632450       -0.6588370692
 O        -5.1775484927        7.3743251394        0.2532002711
 C        -4.8784445652        5.7856125848       -1.5353572369
 C        -5.5232078723        4.3590397160       -1.3378508951
 O        -6.3499552650        3.9582775675       -2.1559613873
 C        -5.3158890777        3.5978511756       -0.0087483584
 C        -6.5584570821        3.7078270106        0.9556371049
 C        -7.4721397849        2.5805248748        0.6310563707
 O        -7.3118383885        1.8170423709       -0.3167867034
 C        -8.8003467703        2.4367296518        1.4716631317
 C       -10.0148188964        2.9605353321        0.4872311003
 O        -9.7580437930        3.3615567137       -0.6481612854
 C       -11.4313445529        2.7937401021        0.8501147367
 C       -12.2501482415        3.5174862399       -0.2413058930
 C       -12.6620247423        2.4998524248       -1.3412027333
 O       -13.0546957143        1.3858086783       -1.1582278333
 C       -12.5526915062        3.0161721096       -2.8750826304
 C       -11.1456246542        2.5982120089       -3.3362429335
 O       -10.2276777089        3.3996193605       -3.2765429633
 C       -10.8795438329        1.1518211659       -3.9163782722
 C       -10.6088627717        0.1282837906       -2.7582601418
 C        -9.2204393564       -0.6151668417       -2.9943766709
 O        -8.2272902013        0.0896498794       -3.2570416417
 C        -9.1091156006       -2.0720594086       -2.8262133987
 C        -9.4273933570       -2.7620483704       -4.3602079764
 O       -10.5312123332       -2.5539950462       -4.7806078678
 C        -8.3073598360       -3.3632440417       -5.1895549190
 C        -7.7355331170       -2.4254705433       -2.2699151227
 C       -10.1609441016       -2.7127846711       -1.9048394652
 C       -13.6879483637        2.3178293375       -3.7898341825
 C       -12.7322261296        4.5004824213       -2.9701151260
 C        -9.0169699529        0.9728183156        1.7666760111
 C        -8.8983875255        3.2040095712        2.7987366556
 C        -4.8991165085        6.2484465647       -3.0660304708
 C        -3.4246170267        5.7033229117       -1.1185797939
 C        -8.3152329409        9.9822230172        2.3383003902
 C        -7.6310548425        8.1229566022        3.9765331489
 C       -14.5564932929        6.6434456997        5.3173720685
 C       -13.7078428145        4.2719516635        6.0244467148
 H       -15.5047178437        2.8355300627        4.1555210854
 H       -16.4300420412        3.6185088036        2.9282930362
 H       -16.5054401345        4.1775041232        4.5657693092
 H       -12.3579616194        7.6403999849        4.4093835905
 H       -12.1742238619        6.8159105356        2.8781290334
 H        -9.7817330616        6.0953165480        3.7602598297
 H        -9.8942976569        7.4622852136        4.9583898255
 H        -7.0446447851        8.9713550763        0.2049709375
 H        -8.5869067234        8.7709186449       -0.2966879564
 H        -7.2377415306        7.7953259150       -1.9944977703
 H        -7.8422387296        6.3680996700       -1.1837694014
 H        -4.4986648740        3.9374975799        0.5894538513
 H        -5.2425601862        2.5524624433       -0.1828188201
 H        -7.2076717744        4.6056319499        0.7530293492
 H        -6.3463455609        3.8246784281        1.9952069800
 H       -11.6221069550        3.3196244063        1.7945189813
 H       -11.6244361985        1.7519762611        0.9760842401
 H       -11.7263205201        4.3846088739       -0.6334123085
 H       -13.0883319765        3.9961023543        0.2893551280
 H        -9.9850746277        1.1717740335       -4.6066596166
 H       -11.6673425855        0.7643748651       -4.6178373154
 H       -11.4103844976       -0.5843469806       -2.6381148995
 H       -10.5013098523        0.7161841178       -1.8167516723
 H        -7.6661735009       -2.5762779784       -5.4833832480
 H        -8.6753023477       -3.8439116842       -6.0808099895
 H        -7.6970376269       -4.0327693743       -4.6135637227
 H        -6.9803115968       -1.9917421224       -2.8177577132
 H        -7.5697678781       -3.4493051771       -2.3869309294
 H        -7.6426240819       -2.0872734091       -1.2448905655
 H       -11.0913667890       -2.9467690340       -2.4123891869
 H       -10.3488579543       -2.1579507629       -0.9351746395
 H        -9.7049725519       -3.6524443920       -1.6108105981
 H       -14.6371393166        2.8008207041       -3.5527349955
 H       -13.7033861792        1.2514311939       -3.5564775533
 H       -13.3803986473        2.3523056025       -4.7879836311
 H       -12.8715358523        4.8616187910       -3.9882919402
 H       -11.8534913731        5.0166448162       -2.5728277538
 H       -13.6220982324        4.8498277361       -2.4405860505
 H        -8.9985273777        0.2900500101        0.8746524437
 H       -10.0322695204        0.7412225943        2.1377413990
 H        -8.3423997076        0.7072798170        2.6276971562
 H        -8.1748276684        2.8309239823        3.4568960887
 H        -9.8339457019        2.9833206193        3.3595805145
 H        -8.7688260251        4.2180424419        2.5225567304
 H        -4.7606340170        5.4032339426       -3.6937341041
 H        -4.2533126546        7.0859565642       -3.2947689776
 H        -5.9032697909        6.5776177213       -3.2868115826
 H        -3.2724622545        5.5840592535       -0.1111636313
 H        -2.8857353086        6.5677532378       -1.5085513139
 H        -2.9442061396        4.8108284967       -1.6432871425
 H        -8.4766349891       10.7311599526        3.1175950434
 H        -8.9942859784       10.2545869604        1.5448194432
 H        -7.3700735671       10.2264469454        2.0040942020
 H        -7.9963919696        8.6565602805        4.9332856349
 H        -6.5890715330        8.5094305816        3.9130634079
 H        -7.6162265241        7.0346038403        4.1910548718
 H       -13.8940461190        7.2583658649        5.9571700162
 H       -15.5733862184        6.5277825917        5.7280585003
 H       -14.6100190509        7.3292343937        4.4800818650
 H       -13.7726441154        3.2761069286        5.5715901495
 H       -14.4716457068        4.3416992928        6.8247643555
 H       -12.6958838127        4.2111923947        6.5394398389
 Na       -8.0615521867        2.3529279165       -2.4049166973
