117

 C       -15.6496166128        3.6988681667        3.7350160266
 C       -14.6350717406        4.7794741223        3.5846973397
 O       -14.4754033506        5.2043257614        2.4513588030
 C       -13.8556903926        5.4075327065        4.8136134391
 C       -12.3717350445        5.6091059209        4.1995513970
 O       -11.7038158715        4.6218370501        4.0169717603
 C       -11.9314533792        7.1551689518        3.9133719157
 C       -10.4314709340        7.1157205334        3.4047587724
 C       -10.0119185733        8.4085504168        2.6042171791
 O       -10.7139986972        9.2486366062        2.1183497270
 C        -8.3900866981        8.5111661510        2.3862730984
 C        -7.9176419761        7.6278488277        1.2383821860
 O        -8.0065884086        6.3670320802        1.3979526091
 C        -7.5810387233        8.1570311146       -0.1729814070
 C        -7.0434394444        7.1309176434       -1.0769120567
 C        -5.5993299236        6.8028477151       -0.6421180785
 O        -4.9925871020        7.5153493454        0.1187105582
 C        -4.8148663691        5.5349534359       -1.4235549851
 C        -5.6393013526        4.2449532496       -1.1991203751
 O        -6.6010245678        3.9887583533       -1.8988259414
 C        -5.2542186429        3.4134406746        0.0129645376
 C        -6.3934861311        3.1379010581        1.0660887261
 C        -7.5063310935        2.2577806959        0.6988695532
 O        -7.3344418997        1.3600040247       -0.0787338130
 C        -8.9545454394        2.3118213585        1.4811023955
 C       -10.0259735300        2.8340417683        0.4821458941
 O        -9.7758348824        3.2155778065       -0.6371493591
 C       -11.4272463775        3.1745206813        1.0565410289
 C       -12.3473116602        3.6371105342       -0.0865451777
 C       -12.5830865706        2.5669849324       -1.2236088981
 O       -12.6099506075        1.3891687545       -0.8578084710
 C       -12.6651689116        3.0007939551       -2.7539446286
 C       -11.1701698832        2.6197040330       -3.2872908893
 O       -10.3474013889        3.4944898867       -3.2930772677
 C       -10.8994416424        1.2050769748       -3.8862617769
 C       -10.6679707127        0.0187944667       -2.9296942016
 C        -9.1981538398       -0.6041446834       -3.0240652020
 O        -8.2716394416        0.1776993453       -3.1318895980
 C        -8.9833752678       -2.0592018925       -2.8416223053
 C        -9.4816420155       -2.8544757182       -4.2243948816
 O       -10.6216138909       -2.7485811005       -4.5745148410
 C        -8.5109354517       -3.7566075855       -5.0254581106
 C        -7.4972888665       -2.3501331629       -2.4500514061
 C        -9.9140495600       -2.6405479797       -1.7776589914
 C       -13.7979710606        2.2687461962       -3.4942871760
 C       -12.8595990979        4.5515720389       -2.9363493749
 C        -9.3292837702        0.9021054326        2.0063471320
 C        -8.8769289867        3.2234418841        2.7232261306
 C        -4.9259924439        6.1285797397       -2.9460842968
 C        -3.3092432270        5.4427851569       -1.1269628165
 C        -8.0757439320       10.0027572396        2.0980704891
 C        -7.6830656089        8.0809743868        3.6735258265
 C       -14.4847633318        6.7759105985        5.1558186078
 C       -13.8049504946        4.3928097172        5.9185937611
 H       -15.9312203506        3.3493295488        4.7215339380
 H       -15.4658590143        2.8839315409        3.0313478306
 H       -16.7157330274        4.0470314475        3.4580246839
 H       -11.9834785850        7.7078916873        4.8694412329
 H       -12.5204851621        7.5706136907        3.0933866595
 H       -10.1868820313        6.2719017965        2.6304279306
 H        -9.7378307999        6.8974673752        4.3038063743
 H        -6.9160629736        8.9978968798       -0.1003101504
 H        -8.5202336604        8.6450045576       -0.5207081610
 H        -6.9372223233        7.5053754125       -2.1394700463
 H        -7.7166624354        6.2710202301       -1.0549978592
 H        -4.4615198656        3.8411181187        0.6190355396
 H        -4.9746259957        2.4375773381       -0.3083534224
 H        -6.7372934692        4.1200096562        1.4569963007
 H        -6.0341847574        2.7142207322        1.9809517301
 H       -11.1921051323        4.0466770024        1.6919314637
 H       -11.8747871408        2.3864101988        1.6033076208
 H       -12.0010020544        4.5516843672       -0.4810562699
 H       -13.3216124361        3.9460820841        0.2696896786
 H       -10.1091441472        1.2408316037       -4.6436338297
 H       -11.7530534989        0.8920966482       -4.5010569034
 H       -11.4088320487       -0.7417661582       -3.2787151094
 H       -10.9151912146        0.2152265948       -1.8916674665
 H        -7.5109451169       -3.3563089931       -5.1582927462
 H        -8.9976452165       -4.0247860972       -5.9137157102
 H        -8.3007223999       -4.7367445343       -4.4696901740
 H        -6.8349693585       -2.1203823680       -3.2990126706
 H        -7.3818700945       -3.4056466581       -2.2248190048
 H        -7.1217294052       -1.7553187498       -1.5864300465
 H       -10.9503430950       -2.3153122284       -1.7942924394
 H        -9.5345719578       -2.3877242980       -0.7521421530
 H        -9.9516368553       -3.7223250290       -1.8912821692
 H       -14.6967768019        2.5225975978       -2.9215698210
 H       -13.5742004426        1.1939143385       -3.4963763181
 H       -13.9113379273        2.5371440242       -4.5115555539
 H       -12.6419543624        4.7595430779       -3.9704361864
 H       -12.1987787344        5.2401175505       -2.4643578304
 H       -13.9236451148        4.8158129904       -2.8208055694
 H        -9.5328402017        0.1897893501        1.2156342398
 H       -10.2155049352        1.0464288360        2.5887507533
 H        -8.5597644944        0.4139687333        2.5346139018
 H        -7.8612733500        3.1662749081        3.2093720624
 H        -9.6151847450        2.8540715679        3.4955219768
 H        -9.0067830357        4.2349740548        2.3919343065
 H        -4.1627327936        5.7576838243       -3.6581868656
 H        -4.8445108192        7.2716839701       -2.9520029442
 H        -5.9298329395        5.8124891582       -3.3871705602
 H        -2.9340073278        5.1182452506       -0.1494940961
 H        -2.8966827587        6.4361938872       -1.3539788122
 H        -2.8212665282        4.8574104349       -1.9351538985
 H        -8.3545761284       10.6538677794        2.9383212362
 H        -8.6137667320       10.4277380305        1.2972398239
 H        -7.0766771769       10.2063217847        1.8016261163
 H        -8.3059631861        8.3590621669        4.5513174605
 H        -6.7742445924        8.5712633423        3.8306617692
 H        -7.3812172156        7.0731243531        3.6839223176
 H       -13.9024026224        7.3160925144        5.9282053388
 H       -15.4852983795        6.6210676593        5.5756871703
 H       -14.6773457499        7.4595479827        4.3228164733
 H       -13.0684325113        3.5922340986        5.8131656586
 H       -14.7439017734        3.8839704269        6.0040490201
 H       -13.6119075774        4.9371991230        6.8561424097
 Na       -8.1298873293        2.4858986276       -2.2720015052
