117

 C       -15.7429734701        3.6091277498        3.6850320134
 C       -14.7456854430        4.7976077835        3.5086002503
 O       -14.4340512746        5.2338976165        2.3894860030
 C       -13.9040446384        5.4235092634        4.7362182730
 C       -12.4571157841        5.6547589754        4.1434729849
 O       -11.7173627342        4.6999790891        3.9898799335
 C       -11.9245690522        7.0888797034        3.8756582333
 C       -10.4317568156        7.0493980942        3.1971099515
 C        -9.9360424051        8.4003991858        2.5592103102
 O       -10.6929667002        9.2739961947        2.2453846960
 C        -8.3370486735        8.6079681760        2.3228178408
 C        -8.0109709305        7.5958485484        1.1996912092
 O        -8.0390315599        6.3680009811        1.3597251408
 C        -7.5682040506        8.1297808954       -0.2468162390
 C        -6.9485498225        7.0701732271       -1.1243214152
 C        -5.5208078271        6.7313670401       -0.7190473354
 O        -4.9362146472        7.3677702737        0.0616282525
 C        -4.8106965000        5.6053275080       -1.5102396630
 C        -5.6289053338        4.2874703006       -1.1844573278
 O        -6.6530986395        4.1146712319       -1.8198690157
 C        -5.2574937281        3.3280318302        0.0122503135
 C        -6.3866089361        3.1544769131        1.0953667255
 C        -7.5461635144        2.0984259502        0.7611249276
 O        -7.5278716955        1.2861742758       -0.1489740921
 C        -8.9446137621        2.3045309544        1.5758401388
 C       -10.0307650057        2.9281543328        0.6075593819
 O        -9.7887466212        3.0563814178       -0.5916977796
 C       -11.4798562737        3.2464359551        1.1199189742
 C       -12.3401841170        3.7507761532       -0.1167115933
 C       -12.5142375369        2.6161946850       -1.1426866952
 O       -12.4841625430        1.4258974802       -0.8156988771
 C       -12.5664488942        2.9754980873       -2.6901346497
 C       -11.1956559476        2.6328421418       -3.3486909504
 O       -10.2327888381        3.3798705398       -3.3797333019
 C       -10.9366512625        1.1964252759       -3.9968631254
 C       -10.7341874049        0.0032667565       -3.1331975075
 C        -9.2402519331       -0.5301001360       -2.9738785128
 O        -8.2961886963        0.1968305015       -3.1452325614
 C        -8.9836338499       -2.1333001536       -2.8423102146
 C        -9.4610068441       -2.7785538114       -4.1251986375
 O       -10.6331944342       -2.6217763543       -4.4403280664
 C        -8.5693638338       -3.7496136184       -4.9359524562
 C        -7.5049956632       -2.3198530278       -2.5478297260
 C        -9.8049689182       -2.7324402592       -1.6268267909
 C       -13.7515243981        2.1936470090       -3.2980659552
 C       -12.8777180498        4.4459043389       -2.9124683356
 C        -9.3377264773        0.8446524694        1.9836321304
 C        -8.8080807154        3.2782940745        2.8232847417
 C        -4.9403692599        6.0647695121       -2.9672421030
 C        -3.3701171516        5.4685709200       -1.0555811444
 C        -7.8366854166       10.0855608130        1.9804173817
 C        -7.7177413769        8.2504507096        3.6702557999
 C       -14.5816855695        6.7654134145        5.1462861279
 C       -13.6773170154        4.5178135158        5.9497466457
 H       -16.1544390744        3.4182873605        4.6852244144
 H       -15.3879405507        2.7317504365        3.1496485552
 H       -16.7084339566        3.7870878888        3.2138472232
 H       -11.8888754619        7.6451719511        4.7663109956
 H       -12.5917584418        7.4864434250        3.1267905353
 H       -10.1717145776        6.1776311749        2.4765336553
 H        -9.7651384787        6.8960147954        4.0637583079
 H        -6.8363535071        8.9275293483       -0.1620711503
 H        -8.3973802123        8.6230376785       -0.7269040371
 H        -6.8243171845        7.4855780125       -2.1618869952
 H        -7.6000244708        6.1623756455       -1.1690278135
 H        -4.4271327624        3.6916620620        0.6108190837
 H        -5.0566484860        2.3329027385       -0.2837428716
 H        -6.7284446900        4.1102355201        1.3894396812
 H        -5.9528524141        2.7883598941        2.0629141052
 H       -11.3956739391        3.9387028988        1.9321518524
 H       -11.9211887394        2.2816655562        1.3711336758
 H       -11.9585033207        4.6418586784       -0.5835130717
 H       -13.3871030092        4.0768902492        0.1095659740
 H        -9.9887542880        1.3431081346       -4.6085093015
 H       -11.6494480859        0.9367282511       -4.8195617451
 H       -11.4482301276       -0.8646789853       -3.4176235214
 H       -11.0467441486        0.2908202701       -2.1553920185
 H        -7.5532947413       -3.4685652647       -4.8828282059
 H        -8.9404560568       -3.8476897739       -5.9221923568
 H        -8.5615343417       -4.7571004661       -4.5182948563
 H        -6.8854732897       -1.8239523374       -3.3046571257
 H        -7.2074864953       -3.3290367502       -2.4291844077
 H        -7.2970783454       -1.8580426723       -1.6474079418
 H       -10.8462353167       -2.3411716120       -1.5614905381
 H        -9.3507216548       -2.4845232045       -0.6847632955
 H        -9.9439745688       -3.8347667955       -1.7248496498
 H       -14.6580735808        2.5572641256       -2.8637481784
 H       -13.6652469469        1.1191041154       -3.2979283146
 H       -13.7626745619        2.5004214990       -4.3554459847
 H       -12.6009430397        4.7758365424       -3.9029955273
 H       -12.3526188795        5.1630791061       -2.3090287802
 H       -13.9686146199        4.5737569445       -2.8371872820
 H        -9.2400028193        0.2231038345        1.0736786751
 H       -10.3977661641        0.8627486253        2.3521952635
 H        -8.6507216107        0.2807510706        2.5904723068
 H        -7.8913033286        3.0891319135        3.4466232138
 H        -9.6513428576        3.0995447526        3.4012114497
 H        -8.7475032316        4.3087467937        2.4873770662
 H        -4.3153381983        5.4271108546       -3.6169892069
 H        -4.6158385393        7.1029849112       -3.1402509136
 H        -5.9797981798        5.8937832643       -3.3166025115
 H        -3.2038278699        5.0000787558       -0.0244206380
 H        -2.9854904869        6.4866524362       -0.9590740614
 H        -2.7598562087        5.0262022206       -1.7509730071
 H        -7.9537077409       10.7223833758        2.8023298198
 H        -8.2665656431       10.6093038017        1.1965891179
 H        -6.7831122301       10.0642407372        1.6563495699
 H        -8.4468580248        8.5395644380        4.4279884047
 H        -6.7741911377        8.7490047811        3.9320250626
 H        -7.4133980443        7.1816064116        3.7609731226
 H       -13.9265564395        7.1715835147        5.9402060674
 H       -15.5494307516        6.6373587493        5.6588300039
 H       -14.7752436473        7.5811629618        4.3936352769
 H       -12.9095496156        3.7004885681        5.7906110604
 H       -14.5915423855        3.9260610597        6.1228277453
 H       -13.4276457417        5.1234104799        6.8259792916
 Na       -8.2664349333        2.5030382327       -2.1622382803
