117

 C        -0.9704411684        6.1640158616        2.4383689461
 C        -1.4271653282        7.0924826298        3.5479096395
 O        -1.0515633981        6.9261599670        4.6954063681
 C        -2.3940878044        8.3334108093        3.1629820987
 C        -3.8622995194        7.8479705417        2.8487208940
 O        -4.1380238992        7.2565261686        1.8278741331
 C        -4.9217876296        7.8792215018        3.9909977065
 C        -5.8996441323        6.6831942944        3.8457117172
 C        -7.3353236066        7.1200135506        3.5660151452
 O        -7.5407408511        8.2285479875        3.1937252565
 C        -8.5970127553        6.0617759628        3.8946005512
 C        -9.8662474252        6.5330463263        3.1823801132
 O       -10.9018375677        6.5800033830        3.8064146775
 C        -9.9159925694        6.9381123998        1.7175841112
 C       -11.3510879184        6.9063342817        1.2623284849
 C       -11.8153655797        5.5003723890        0.8047731487
 O       -11.0798498769        4.5957561888        0.6250000095
 C       -13.4153276802        5.4760179234        0.8835823717
 C       -13.9959451336        4.1600189174        0.1229168830
 O       -13.3562812197        3.8474924440       -0.7998717600
 C       -15.4775141835        3.6206303135        0.3517862335
 C       -15.5852485102        2.0859796830        0.4463716650
 C       -14.1753462915        1.3644430958        0.4071171376
 O       -13.2955916567        1.7617915474        1.1479324685
 C       -14.0625097993        0.0532279164       -0.3736129568
 C       -13.5117346769        0.3023629083       -1.7825634005
 O       -12.6094455538        1.1196545384       -1.9483151358
 C       -13.7339137504       -0.7743174503       -2.9690073669
 C       -12.7944354262       -0.8242747653       -4.0652795860
 C       -12.7363114508        0.4127704904       -4.9017970274
 O       -13.7375961089        1.1491423194       -4.9111943813
 C       -11.4633339917        0.6933904159       -5.8223857098
 C       -10.2970898649        0.9280328991       -4.8605929682
 O        -9.7663483250        0.0881638818       -4.1345133613
 C        -9.8568243795        2.4121111376       -4.7126797380
 C        -8.5786293671        2.5624091229       -3.8826439963
 C        -8.8528527040        2.4308123906       -2.4577515458
 O        -9.6879358045        3.2590543232       -2.0198301048
 C        -8.1190222229        1.4470398414       -1.5797835334
 C        -9.1547119086        0.2440701570       -1.3176946282
 O       -10.2550282528        0.3975967434       -0.8130893991
 C        -8.7160960099       -1.1784286874       -1.6238860710
 C        -6.7995867043        0.9789020066       -2.2094785216
 C        -7.7262361106        2.1095475899       -0.1932505242
 C       -11.3038226964       -0.5354928170       -6.7064115608
 C       -11.7752706450        1.8009127189       -6.7951080654
 C       -12.9787264760       -0.8472888621        0.3204210744
 C       -15.4544996095       -0.7533889259       -0.3258034057
 C       -13.6196870770        5.3994896084        2.4315243776
 C       -14.2428557415        6.7539717553        0.4830729916
 C        -8.3247444949        4.6082781955        3.2770253395
 C        -8.7432729731        6.0192281968        5.4240228304
 C        -2.3197217811        9.3666060467        4.3597401797
 C        -2.0048267386        9.0655694042        1.8674782930
 H        -1.3447361172        6.4643305173        1.5023167733
 H        -1.1474469259        5.0726042268        2.6158589785
 H         0.0919935320        6.3565118620        2.2482149278
 H        -5.3798560323        8.8655675533        3.8415618111
 H        -4.5136288526        7.8090980725        4.9132491931
 H        -5.9084587703        6.2945800781        4.8335476492
 H        -5.5143832897        5.9222955568        3.2691134211
 H        -9.2552672320        6.2706255643        1.0928470654
 H        -9.5381976642        8.0022456883        1.6422081113
 H       -11.5194877290        7.6367107841        0.5187904844
 H       -11.9242971419        7.1753563525        2.1505698816
 H       -16.0220815476        4.0000029872       -0.5087388708
 H       -15.9805177568        4.0754808663        1.2066801925
 H       -16.3765355883        1.6352817588       -0.2139525544
 H       -15.8452559167        1.8562744843        1.4262848717
 H       -14.7795488493       -0.7346478967       -3.2753143746
 H       -13.4600089519       -1.6285791877       -2.3633838914
 H       -13.2369742278       -1.6716263819       -4.7316358495
 H       -11.7690903293       -1.2594821467       -3.7845966386
 H       -10.6660207191        2.8710841873       -4.1798484974
 H        -9.7191104885        2.9732889997       -5.6020277571
 H        -8.2250875866        3.6189810716       -4.0303150905
 H        -7.8203575973        1.8895463209       -4.2840852466
 H        -8.5204134894       -1.1835126213       -2.7371967354
 H        -9.4927627800       -1.7434598377       -1.2866539462
 H        -7.7667028526       -1.3830147117       -1.0607604618
 H        -6.1102458141        1.7542738280       -2.1341220008
 H        -6.8578524980        0.6903443436       -3.2293612410
 H        -6.4533061823        0.0393558412       -1.6308369789
 H        -8.5341771368        2.7810134533        0.1988522943
 H        -6.8332119983        2.6778118653       -0.2177024189
 H        -7.6302702383        1.2237336352        0.4913830771
 H       -12.1419654860       -0.9044170844       -7.2936331363
 H       -10.9388664679       -1.3897552877       -6.0740503300
 H       -10.4975764142       -0.4467275776       -7.3688870753
 H       -11.7570639038        2.7858202439       -6.2550347659
 H       -12.7231242834        1.7890353949       -7.3256083144
 H       -11.0293269808        1.7687528475       -7.5887789074
 H       -13.3616997792       -1.1214398713        1.3347791338
 H       -12.0145868505       -0.3032620622        0.4180620151
 H       -12.7475181168       -1.7169425003       -0.3104424404
 H       -15.8245244830       -0.6701728880        0.6406314508
 H       -15.3163202482       -1.8046884472       -0.4389804434
 H       -16.1233303998       -0.4719766051       -1.1908796751
 H       -14.5986557426        4.9387944845        2.4523765322
 H       -13.7122984878        6.3072649584        2.8891636808
 H       -12.9407091874        4.6647340167        2.9706076004
 H       -14.3345324355        6.8554758341       -0.6283929227
 H       -13.7706728631        7.6649577831        0.8812175885
 H       -15.1871866195        6.5569629561        0.9328385303
 H        -7.4040879542        4.1931222167        3.5969330658
 H        -8.2835104684        4.6868562017        2.2218029080
 H        -9.2091042203        4.0624783035        3.5663520359
 H        -9.5906798478        6.6275429879        5.7977006025
 H        -7.9092640553        6.2953001196        6.0683117821
 H        -8.8793241909        5.0081026294        5.8293776033
 H        -1.7931400379        8.8520581882        5.2436494807
 H        -3.3100889947        9.7555281794        4.6772187776
 H        -1.7115209355       10.1982636377        3.9807293316
 H        -2.6708617880        9.9489830855        1.7024489570
 H        -2.3483524200        8.4429039723        1.0141845741
 H        -0.9409139262        9.1725314032        1.7352052604
 Na      -11.1460312397        2.4814506860       -0.2624485669
