117

 C       -15.7935325210        3.8825300217        3.6230720207
 C       -14.6737971366        4.8445359569        3.2294115575
 O       -14.3723982145        4.9743830727        2.0861968948
 C       -13.7675926683        5.6608817615        4.3432141299
 C       -12.2887133894        5.7608822131        3.7834814640
 O       -11.4048808384        4.9006741384        3.9782165067
 C       -11.9165417285        7.0942435887        3.0389193956
 C       -10.4659102448        7.1421892461        2.5770122822
 C        -9.9229416886        8.5874989771        2.4890509488
 O       -10.6518345048        9.4976043584        2.8103806181
 C        -8.3157498890        8.6866916101        2.1293958808
 C        -7.9603110069        7.6250580547        0.9799342200
 O        -7.9955924610        6.4716999293        1.2038439828
 C        -7.4907227148        8.1522066452       -0.3606518791
 C        -6.9638562434        7.0288000502       -1.2626314006
 C        -5.6101647905        6.4790840218       -0.7106715283
 O        -4.9203432166        7.0389545474        0.1307147757
 C        -4.8662167274        5.2411527746       -1.5148945696
 C        -5.8345208807        4.1090332193       -1.2692768877
 O        -6.8134868848        4.0402123156       -2.0278960336
 C        -5.6379783729        3.1280338396       -0.0783956207
 C        -6.6752670863        3.2653559004        1.1298547539
 C        -7.7571558130        2.1945036030        0.9967155760
 O        -7.6002336699        1.2887664940        0.2096183683
 C        -8.9847327059        2.3369155622        1.7794039752
 C       -10.0066234628        3.0117759505        0.7004704887
 O        -9.7487289766        3.0464232464       -0.4546702041
 C       -11.2951782971        3.4917212084        1.2695101824
 C       -12.2531077861        3.7310769899        0.0674608765
 C       -12.2470109693        2.5585329261       -0.9680605417
 O       -12.1129566643        1.4191689696       -0.6590060001
 C       -12.5588340529        2.8139019431       -2.4946837637
 C       -11.1689724976        2.4317680955       -3.2162095239
 O       -10.2582128404        3.2507776548       -3.2758046824
 C       -11.0156527965        1.1844363655       -4.0502573325
 C       -10.8441005579       -0.0497681610       -3.0345573711
 C        -9.3459384385       -0.4022095078       -2.9205245659
 O        -8.4138366083        0.4164139950       -2.9640223538
 C        -9.0384886619       -1.9658541622       -2.7539055738
 C        -9.6109733967       -2.7746809802       -3.9882412498
 O       -10.7951145451       -2.7564942127       -4.1763600596
 C        -8.7192424243       -3.7107178280       -4.7237631446
 C        -7.5329570102       -2.1978733393       -2.7224461463
 C        -9.6836458484       -2.4473043448       -1.4812959495
 C       -13.6615985252        1.8979535880       -2.9536488144
 C       -12.8718333601        4.3271364707       -2.7426239426
 C        -9.4021570163        0.8609657435        2.1672632384
 C        -8.8911801983        3.2844366541        2.9726560221
 C        -4.7124669815        5.6850455871       -2.9775801776
 C        -3.4563043073        4.9805619873       -0.8523974091
 C        -7.9071381297       10.0811582807        1.7811344152
 C        -7.6784467163        8.2241649529        3.4759409694
 C       -14.3599698433        6.9892927150        4.7567186267
 C       -13.6288990165        4.9178005996        5.7350969959
 H       -16.6904023004        4.3709450411        4.0328706724
 H       -15.4199158699        3.1836209129        4.4177491610
 H       -16.1791618532        3.2535856724        2.7973941936
 H       -12.1324304686        7.7803211695        3.8335628713
 H       -12.6067055027        7.2856845629        2.2397057587
 H       -10.4633794171        6.6880484289        1.5964974057
 H        -9.8634812908        6.4746256196        3.2710612143
 H        -6.6902355702        8.8727504386       -0.1196853092
 H        -8.2037858882        8.6566283028       -0.9570307147
 H        -6.8067827391        7.4467006836       -2.2682839965
 H        -7.7523517201        6.2116951466       -1.2333853660
 H        -4.7447017165        3.2793228509        0.4561895091
 H        -5.6746179232        2.0884834650       -0.3827444570
 H        -7.1267787092        4.2309939749        1.0399860645
 H        -6.0653680009        3.2423184727        2.0406706038
 H       -11.1693040470        4.4539736541        1.6722154461
 H       -11.7361669359        2.7430994548        1.9221622838
 H       -12.0516493191        4.7149711718       -0.4192029977
 H       -13.2490126411        3.7639647724        0.4970738744
 H       -10.0834151718        1.2687692693       -4.6808985883
 H       -11.9434672500        1.0043758397       -4.6739766577
 H       -11.3757622657       -0.9056735047       -3.4100731633
 H       -11.3001115740        0.1513341264       -2.0354713664
 H        -8.1669283180       -3.2018436367       -5.5111699629
 H        -9.2883657012       -4.5486021086       -5.1256139996
 H        -7.9976823078       -4.1086564488       -4.0868683688
 H        -7.1002689399       -1.8392680209       -3.5967989103
 H        -7.2189576670       -3.2099295047       -2.4701701515
 H        -7.1096657306       -1.5980265106       -1.8970159613
 H       -10.7808184156       -2.5005832239       -1.5425023747
 H        -9.4802787413       -1.8288792720       -0.5934742787
 H        -9.3490240043       -3.4513606308       -1.1842873911
 H       -14.6312514117        2.0134347403       -2.5147295041
 H       -13.4294063532        0.8790622880       -2.7145887080
 H       -13.7854472886        2.1313407589       -4.0037695568
 H       -13.1128784952        4.6039692196       -3.7772561445
 H       -12.1248441729        4.9956951266       -2.2818387701
 H       -13.7285906887        4.4995950253       -2.1505568748
 H        -9.7233076767        0.2349283438        1.3212334062
 H       -10.0807022222        0.9539252731        2.9860638167
 H        -8.5311171489        0.3444970129        2.6441653909
 H        -8.0010412317        3.1961149164        3.4677377619
 H        -9.7734595499        3.1147943665        3.6240605437
 H        -9.0285151564        4.3432896597        2.7168275093
 H        -3.9925656820        4.9379769254       -3.4611789140
 H        -4.1092353494        6.6216085298       -3.0366100991
 H        -5.6346002372        5.8751925665       -3.5755618450
 H        -3.5514577513        4.9291726424        0.1709516975
 H        -2.8869948040        5.8956060058       -0.9739448839
 H        -2.9153585060        4.0236236836       -1.1854921014
 H        -7.9999755462       10.7630126697        2.6016410516
 H        -8.4628703561       10.5052034013        0.9208923211
 H        -6.8961064549       10.1443398795        1.5413356530
 H        -8.0040410699        8.8850246055        4.2769568585
 H        -6.5650018455        8.2759797058        3.4631133465
 H        -8.1133690954        7.2777360559        3.7833196807
 H       -13.6049065093        7.5717103421        5.3301893550
 H       -15.2523121789        7.0012278694        5.4135840178
 H       -14.5216637088        7.5449497054        3.8382274013
 H       -12.9689358083        4.0887366163        5.5455511287
 H       -14.6107617022        4.5058934554        6.0589972056
 H       -13.2429207825        5.5362199001        6.5686697427
 Na       -8.2297944284        2.4967299206       -2.1172816159
