117

 C       -15.7632265461        4.1562487791        3.6842931973
 C       -14.4621368434        4.8634210305        3.2547918240
 O       -14.1747337734        4.9996060805        2.0605994832
 C       -13.7127559580        5.6928369512        4.3431241413
 C       -12.2370994026        5.8674175605        3.8472303684
 O       -11.4484699887        4.9888220625        4.0199165985
 C       -11.9936715352        7.0415888884        2.7562737739
 C       -10.5284758005        7.1614500402        2.2852410848
 C        -9.8311557181        8.5533382189        2.3561575931
 O       -10.3602145900        9.5403685460        2.7917886461
 C        -8.2081332763        8.6473634456        2.0014463160
 C        -7.8573549742        7.6907028103        0.9111602703
 O        -8.0500128740        6.4494526810        1.1194131405
 C        -7.4114119434        8.1834266516       -0.4390588296
 C        -6.7525089988        7.0205972654       -1.2252097758
 C        -5.4276944789        6.6104436169       -0.6451240438
 O        -4.9684042954        7.1142301768        0.3865909463
 C        -4.6965787176        5.4224443133       -1.4602401651
 C        -5.6569749753        4.0463710116       -1.3053604035
 O        -6.5963642624        3.9525396741       -2.1001691924
 C        -5.5205517900        3.0588994629       -0.1679603666
 C        -6.7135957428        3.2948741676        0.8699436240
 C        -7.6874140189        2.1644390130        0.9452679653
 O        -7.5021457963        1.1057528743        0.3476981863
 C        -9.0496514268        2.3647386154        1.8361480406
 C       -10.0566868826        2.9506818996        0.8609802024
 O        -9.7055485561        3.2657107057       -0.2985074894
 C       -11.4798188936        3.2817514742        1.3136079947
 C       -12.3763600313        3.6591184635        0.1047563064
 C       -12.3700866885        2.5708983591       -0.9328103776
 O       -12.1580775488        1.4193917087       -0.5404834473
 C       -12.6618592812        2.8378401852       -2.4736059215
 C       -11.2801135948        2.5455732976       -3.1563432688
 O       -10.3894516996        3.3758629466       -3.0656124120
 C       -11.0844358418        1.2084115993       -3.9613670079
 C       -10.8054860797       -0.0456138901       -3.1247712808
 C        -9.2995208497       -0.5491966462       -2.9556784597
 O        -8.3546711544        0.1786724579       -3.1360310588
 C        -8.9540245396       -2.1090905636       -2.7152152100
 C        -9.6050508446       -2.8903144771       -3.8954069864
 O       -10.8386925270       -2.8703301221       -3.9967440070
 C        -8.7739431524       -3.7558897522       -4.8442614019
 C        -7.4110470137       -2.1768731684       -2.4903882534
 C        -9.6898442209       -2.5373801063       -1.3899224249
 C       -13.8863936506        1.9706531488       -2.8860102730
 C       -13.0672588213        4.3450462752       -2.7534994221
 C        -9.7046818821        1.0723011980        2.2932379796
 C        -8.8628380996        3.2702132526        3.0120545144
 C        -4.7298629033        5.6798982501       -3.0201914147
 C        -3.2757421260        5.2247564440       -0.8545111895
 C        -7.9075856403       10.1334538622        1.6894077485
 C        -7.5668833363        8.2318187727        3.3883888505
 C       -14.5239096819        7.0378584062        4.3626487440
 C       -13.7300863566        4.8659732294        5.6695680837
 H       -16.4236836814        4.8648144065        4.2078177898
 H       -15.6828295903        3.3912081833        4.4407483225
 H       -16.2927478880        3.7946988446        2.8543046127
 H       -12.4250783684        7.9765589300        3.1603570731
 H       -12.7516422945        6.7235741438        2.0072126370
 H       -10.4568893313        6.7218989050        1.2873111179
 H        -9.9961303441        6.5482465508        2.9237576329
 H        -6.7093797274        9.0055209603       -0.3096313947
 H        -8.3382338211        8.5202384996       -1.0002130345
 H        -6.4732233881        7.3355574917       -2.2283640410
 H        -7.4278700321        6.2116033759       -1.2180973536
 H        -4.5696975279        3.0490383019        0.4317887955
 H        -5.7029122937        2.0228610286       -0.5446348945
 H        -7.2664489118        4.2457205099        0.6650508125
 H        -6.2373686822        3.3076944033        1.8549473475
 H       -11.4761997372        4.2421404983        1.9129177309
 H       -12.0042763692        2.4173232938        1.7738047585
 H       -11.9878106695        4.5278555570       -0.4135760004
 H       -13.4274191864        3.8548282557        0.4568999697
 H       -10.2930782695        1.3626438374       -4.6716577775
 H       -12.0401530600        1.0242644203       -4.4059697084
 H       -11.3875007293       -0.9107753140       -3.5416501742
 H       -11.2357568832        0.0676764051       -2.1218577878
 H        -8.3614334146       -3.1829500461       -5.6639599685
 H        -9.4269383061       -4.5302584289       -5.2985943196
 H        -7.9577151058       -4.2790713354       -4.3408956105
 H        -6.7855086766       -1.9827396892       -3.3919989425
 H        -7.1313085478       -3.1634950459       -2.1566668487
 H        -7.1770989762       -1.4304767257       -1.7813830152
 H       -10.6897269596       -2.1178857504       -1.3238418675
 H        -9.1726164871       -2.1683640157       -0.5232836925
 H        -9.8023014086       -3.5958597620       -1.1713069862
 H       -14.7686497932        2.2531975396       -2.3114656943
 H       -13.8149606703        0.9387700374       -2.5383563912
 H       -14.2016876894        2.1016565583       -3.9293527411
 H       -13.1855538289        4.2986822910       -3.8188208373
 H       -12.3057159028        5.0435685840       -2.4686630868
 H       -14.0328751687        4.7169540763       -2.3341060154
 H        -9.7098056042        0.3588396053        1.4273986129
 H       -10.7372055176        1.2382795876        2.7485547323
 H        -9.1660995636        0.6573505708        3.1733294679
 H        -8.2514109693        2.6817591876        3.7588710731
 H        -9.7670305167        3.5597916732        3.4706805977
 H        -8.4087779325        4.2380911892        2.8150778222
 H        -4.1511129724        4.9744755226       -3.5548296133
 H        -4.4656726974        6.6750397701       -3.2840695381
 H        -5.7396921848        5.6011033329       -3.3340498578
 H        -3.2579927861        4.7695921843        0.1827817172
 H        -2.6895313156        6.1398623044       -0.9106879738
 H        -2.8700033211        4.4477831207       -1.3943998653
 H        -8.4342647889       10.6718050378        2.4812744131
 H        -8.3506596953       10.4378026952        0.7594863959
 H        -6.8511392046       10.5463095226        1.8544188401
 H        -8.3007344920        8.3745593691        4.1916698506
 H        -6.7555284325        8.9205686324        3.6050815204
 H        -7.3751806346        7.1504063081        3.4959759922
 H       -14.1594162579        7.8883543525        4.9376421022
 H       -15.4917109449        6.7799579492        4.8007191686
 H       -14.7055529267        7.3572963099        3.3092268875
 H       -13.1956383971        3.8936349975        5.4805729703
 H       -14.7539728705        4.7279513856        6.0163187251
 H       -13.1709452346        5.4036396267        6.4353802448
 Na       -8.4897086540        2.2276781570       -2.0300400867
