117

 C       -15.7906171141        4.3280982252        3.6410788970
 C       -14.5687375092        5.1322106899        3.1755237189
 O       -14.1460690852        5.1528332909        2.0435187271
 C       -13.7859606621        6.0771575569        4.2501420035
 C       -12.3200378205        6.1218418635        3.6722927489
 O       -11.4519866060        5.4500410527        4.1942193661
 C       -11.9729219389        7.0989492711        2.4654231332
 C       -10.5310428205        7.0716687334        2.0778798560
 C        -9.7441934849        8.4760932321        2.3014696649
 O       -10.3812754793        9.4158878617        2.7134841136
 C        -8.1920850158        8.5449524685        1.9302127120
 C        -7.8027810736        7.6472887839        0.7720496792
 O        -7.9260733165        6.4113657731        0.8996123716
 C        -7.1751986301        8.2284857669       -0.5201095682
 C        -6.5924315551        7.1209903150       -1.4445964683
 C        -5.4128871727        6.4443894369       -0.7708594158
 O        -5.1056444784        6.7018210515        0.4152833286
 C        -4.7212202124        5.3477248684       -1.4407542340
 C        -5.6807603285        4.0644938120       -1.3290996031
 O        -6.4260146996        3.8300257587       -2.2823336503
 C        -5.5976665156        3.1643348821       -0.0877725116
 C        -6.6754397226        3.4427188703        1.0504412037
 C        -7.6930067155        2.2955217490        0.9738811264
 O        -7.6111513680        1.5015789188        0.0341441317
 C        -8.9745001908        2.3643612435        1.8428607002
 C        -9.9882520947        3.0030380894        0.8863629374
 O        -9.5793044932        3.5466751851       -0.1301046388
 C       -11.4590923513        3.1736460439        1.2403294646
 C       -12.2913644104        3.5245551635        0.0347479360
 C       -12.5877841699        2.3610851904       -0.9208951082
 O       -12.5716453512        1.2182705765       -0.5204486761
 C       -12.7493597639        2.6912657555       -2.4209555048
 C       -11.3437981728        2.3676415131       -3.0436633475
 O       -10.3744337810        3.0001286360       -2.7444373102
 C       -11.0714604148        1.0502587904       -3.7909782771
 C       -10.7837838936       -0.1234471743       -2.8648584104
 C        -9.3534983240       -0.5614395169       -2.7979876523
 O        -8.4696248819        0.2586014586       -2.9010850467
 C        -9.0850949875       -2.0868820200       -2.5562699337
 C        -9.6697689455       -2.9719486819       -3.7842418653
 O       -10.8665799639       -3.1289478722       -3.8046463602
 C        -8.8069988973       -3.6105971946       -4.8434786771
 C        -7.6083616998       -2.2178533540       -2.4314002404
 C        -9.8048060147       -2.4689969005       -1.2833138480
 C       -13.8128135143        1.7879916677       -3.0684235782
 C       -13.1695013902        4.0976765432       -2.7464300480
 C        -9.4134430517        0.9317935644        2.4279287456
 C        -8.8810462056        3.4099218568        3.0187149746
 C        -4.6214525108        5.4429848742       -3.0000636072
 C        -3.3495336687        4.9432526584       -0.8049927175
 C        -7.9405362502       10.0272472639        1.6398164772
 C        -7.5462111447        8.1057676109        3.3386850033
 C       -14.4373869086        7.4480867228        4.2924733791
 C       -13.8036847391        5.2765802942        5.5701635552
 H       -16.0786332812        4.5089710408        4.6801057067
 H       -15.6656508032        3.2534523001        3.7321283115
 H       -16.5216067073        4.5383449114        2.9483491024
 H       -12.2796161461        8.1133988036        2.6335448166
 H       -12.6481651173        6.8161385665        1.6550107126
 H       -10.5427015705        6.7897109406        1.0710359895
 H       -10.0048213812        6.3678188945        2.5663642463
 H        -6.3769011263        8.9357909041       -0.3266783876
 H        -8.0211821637        8.7428026709       -1.0307721941
 H        -6.2825080552        7.5008411697       -2.4386919560
 H        -7.3173225059        6.3333394754       -1.5404617082
 H        -4.5549525355        3.1334069259        0.2971799479
 H        -5.7819354549        2.1410259877       -0.4735171187
 H        -7.2244377207        4.3684520962        0.8177177062
 H        -6.2915294178        3.4620768656        2.0710219719
 H       -11.5725568343        4.0988209244        1.8819095690
 H       -11.9187934578        2.2490035097        1.6687617068
 H       -11.7329397629        4.3006927263       -0.5132117957
 H       -13.3291211701        3.8993006878        0.3133449167
 H       -10.2301819590        1.2793507654       -4.4763760700
 H       -12.0086853993        0.7866503612       -4.2802560825
 H       -11.4969898453       -0.9815993779       -3.0380107774
 H       -10.9928797887        0.1516004876       -1.8341292083
 H        -7.9909771817       -3.0000038015       -5.1155490424
 H        -9.3740991686       -3.7273320185       -5.7987686232
 H        -8.4829870903       -4.5379028246       -4.5312691429
 H        -7.0941371241       -1.7415857857       -3.2577539336
 H        -7.3020378613       -3.2334576852       -2.4265041662
 H        -7.3641233838       -1.6953880578       -1.5775645160
 H       -10.8413759630       -2.7888665836       -1.5090665488
 H        -9.9224312953       -1.6727280353       -0.5802306138
 H        -9.3802882105       -3.2621352807       -0.6435869970
 H       -14.7772622820        2.0388451123       -2.6820863627
 H       -13.7191294105        0.7347040146       -2.8154060591
 H       -13.8970969967        1.8289895532       -4.1840024004
 H       -13.2849566298        4.1780479792       -3.8184475255
 H       -12.3603303956        4.7612456089       -2.4692261938
 H       -14.1294223908        4.3599907891       -2.2616191507
 H        -9.9978915884        0.4411927537        1.6124116303
 H       -10.2173273635        1.0385657521        3.2127383478
 H        -8.4893290118        0.4672720663        2.8144700301
 H        -7.9455920564        3.3770978849        3.5390969132
 H        -9.5178253505        3.1764897138        3.8024798342
 H        -9.0063161555        4.4400807460        2.6388993544
 H        -4.1177861105        4.5482560333       -3.4283875550
 H        -4.1413798831        6.3999017804       -3.1982202918
 H        -5.5967038840        5.4778352525       -3.5259310193
 H        -3.4530650198        4.9189183613        0.2879585077
 H        -2.5173472212        5.5867569758       -1.1028877666
 H        -3.1067162904        3.9519369777       -1.1574589554
 H        -8.0582056996       10.5580541334        2.5344545309
 H        -8.6334487815       10.4017814630        0.9135216318
 H        -6.8868350957       10.1853297290        1.3178674430
 H        -7.3662952174        8.9584539074        3.9693804691
 H        -6.5803525173        7.5905997259        3.0583896310
 H        -8.2013945131        7.3308881093        3.8387176875
 H       -13.8163247622        8.2044146214        4.7822717538
 H       -15.4093197317        7.2410608779        4.7554366011
 H       -14.6583528748        7.8994843509        3.2881867191
 H       -13.1477000596        4.3719835423        5.4883693966
 H       -14.8224406713        5.0765206470        5.9322852790
 H       -13.3059501441        5.9130023370        6.2905408130
 Na       -8.2390252012        2.3921254309       -1.9183300220
