117

 C       -15.8447667307        4.7193177061        3.7571624743
 C       -14.6585911006        5.4711033540        3.1470990564
 O       -14.3900698790        5.3877915064        1.9869234087
 C       -13.7397589716        6.2863924089        4.0949277155
 C       -12.3146994894        6.3009699289        3.5505583463
 O       -11.4342365750        5.5456854705        3.9937840023
 C       -11.8792341797        7.3398064088        2.4997683894
 C       -10.5209633236        7.1498367464        1.9761235056
 C        -9.7142038649        8.4285336072        2.1577636775
 O       -10.3778596271        9.4389167570        2.3542646273
 C        -8.2478425939        8.4532818506        1.9638107789
 C        -7.7730719118        7.5094020531        0.7209016313
 O        -8.1370530313        6.3605535538        0.6509589019
 C        -7.0572987675        8.1549141484       -0.4529529544
 C        -6.4591667852        7.0770775173       -1.4436428171
 C        -5.2310856089        6.2921276569       -0.7017819270
 O        -4.9950624609        6.5635970699        0.4278952223
 C        -4.5021178765        5.1728675336       -1.5677361800
 C        -5.5081725320        3.9495633606       -1.2853338021
 O        -6.4952675080        3.9007347953       -2.0025728500
 C        -5.3264692616        3.0454993764       -0.0367670781
 C        -6.3629521061        3.4065343857        1.0776887474
 C        -7.5836262838        2.3446746689        0.9755475076
 O        -7.4801681926        1.4650650022        0.1384798775
 C        -8.9525235639        2.4959353309        1.7972050777
 C       -10.1027449384        3.0847603353        0.7893834935
 O        -9.8777675594        3.5268103392       -0.2891337881
 C       -11.5294228143        3.0904338919        1.2999649435
 C       -12.5406984251        3.4411970528        0.1778838507
 C       -12.7900737266        2.2987371811       -0.8278949778
 O       -12.9708958297        1.1910289298       -0.4560664846
 C       -12.8496630882        2.5200664458       -2.4851849983
 C       -11.3876831412        2.3307385870       -3.0630213148
 O       -10.5264702193        3.1331740196       -2.8485891437
 C       -10.9203523478        0.9749357063       -3.7227571926
 C       -10.8690960497       -0.2976776176       -2.8833184616
 C        -9.4887592883       -0.7206737894       -2.4940670641
 O        -8.5787467807        0.1034584361       -2.4658086490
 C        -9.1046820010       -2.2376622830       -2.3670947580
 C        -9.6764887628       -2.9620461657       -3.6284700691
 O       -10.8417976008       -3.1822822256       -3.7765052748
 C        -8.7036691965       -3.3029595968       -4.6913862545
 C        -7.5827609045       -2.4017703183       -2.1821225276
 C        -9.7550276161       -2.7923542076       -1.0463496240
 C       -13.7904765239        1.4722857689       -3.0134012592
 C       -13.2669322912        3.9715161437       -2.8914206604
 C        -9.3997027273        1.0950232322        2.4351506843
 C        -8.6466367243        3.5478785112        2.8761866624
 C        -4.6252388143        5.4258566050       -3.0818993664
 C        -3.0441081078        4.9714885756       -0.9972136405
 C        -7.9083947536        9.9494070715        1.6966501502
 C        -7.4766573986        7.7679657092        3.1676138022
 C       -14.2917519822        7.7880836033        4.0905969036
 C       -13.7360532187        5.6363349990        5.6035950943
 H       -16.6623779959        5.4240453507        4.0614462129
 H       -15.6974922053        4.2865312181        4.7810442304
 H       -16.2126913441        3.9691336695        3.0609685885
 H       -12.0479316387        8.3234176234        2.9086873832
 H       -12.5700716853        7.3195415745        1.6488704902
 H       -10.5330464969        6.8680501348        0.9561534795
 H       -10.1579280378        6.2870797732        2.4731416338
 H        -6.3069629642        8.8422217924       -0.1098340850
 H        -7.7773255914        8.7608805412       -1.0126682042
 H        -6.0425668073        7.5580298090       -2.3798008670
 H        -7.2040870147        6.3789427326       -1.8434322289
 H        -4.3381039575        3.2396471207        0.3515608391
 H        -5.3004421298        2.0085669230       -0.3117518084
 H        -6.8148197106        4.3855278330        1.0380572278
 H        -5.8461248393        3.2909904056        2.0237411829
 H       -11.7980232482        3.8534200633        2.0508063425
 H       -11.7692787180        2.1173290144        1.7376728438
 H       -12.2706250050        4.3683079640       -0.3455881771
 H       -13.5015883034        3.5931020313        0.7563450534
 H        -9.9867838238        1.2374052247       -4.3124416249
 H       -11.6807730397        0.7743626840       -4.5277919759
 H       -11.3442467463       -1.1834590065       -3.4385911819
 H       -11.4537684280       -0.1911537003       -1.9950831073
 H        -8.1583689735       -2.3684043103       -4.8861736624
 H        -9.1691736163       -3.5514809079       -5.6716450910
 H        -8.0204337514       -4.0294073569       -4.4207268291
 H        -7.1016893156       -1.9354519443       -3.0308450432
 H        -7.3646367404       -3.4936988472       -2.0991675391
 H        -7.3046350911       -1.9523124781       -1.2275730308
 H       -10.7651625023       -2.3781962694       -0.8578273725
 H        -9.2240399623       -2.5645509289       -0.1576690550
 H        -9.9120360415       -3.8918736826       -1.0622228126
 H       -14.7882138704        1.7233339461       -2.7679927141
 H       -13.5640251507        0.4585003022       -2.8269145693
 H       -13.7924439428        1.4086452427       -4.1275582050
 H       -13.7632045797        3.9369638367       -3.8546933438
 H       -12.3830479701        4.5971112858       -3.0552685520
 H       -13.9769803541        4.3726098613       -2.1803348574
 H        -9.6809466063        0.4409265132        1.6398327882
 H       -10.2137173494        1.2925955530        3.0782157954
 H        -8.5366719249        0.7003117929        2.9077553047
 H        -8.2043591846        3.1392809672        3.7333524872
 H        -9.5358030410        3.9827219711        3.2820303051
 H        -7.8509021249        4.2427955593        2.5617724240
 H        -3.8330403899        4.7777693512       -3.6288268678
 H        -4.3394454536        6.4644829111       -3.3111465278
 H        -5.6435196829        5.0775742453       -3.3933588877
 H        -3.1762705022        4.8266318146        0.0302312003
 H        -2.2438877662        5.6880557086       -1.1501459055
 H        -2.6403003326        4.0832227886       -1.5307821660
 H        -8.3675467931       10.4132998098        2.4995567846
 H        -8.4347518035       10.3180549787        0.8156047992
 H        -6.8563481333       10.1760957671        1.6262182843
 H        -8.0872723012        7.7912873594        3.9845999841
 H        -6.5250676096        8.2589506252        3.3617905505
 H        -7.1868587193        6.7771003744        2.8569651414
 H       -13.7631935241        8.5262157087        4.6674444416
 H       -15.3377764019        7.7142791082        4.3386155348
 H       -14.2175266543        8.0873721136        3.0450193292
 H       -13.4422384393        4.6283716540        5.3958520315
 H       -14.6919200493        5.5611316590        6.0843265972
 H       -13.0496030159        6.1085041665        6.2356230849
 Na       -8.5002264229        2.4934221960       -1.9586814415
