117

 C       -16.1009458275        5.1256894665        3.7351046660
 C       -14.7797042784        5.6612942916        3.2352701224
 O       -14.4728294888        5.3919826371        2.1190016275
 C       -13.7489062389        6.5820651369        4.1382864888
 C       -12.3542177272        6.3835643816        3.4194047427
 O       -11.6780999395        5.3483877878        3.5814539635
 C       -11.9864516705        7.3727688655        2.3403645487
 C       -10.5209215739        7.2400385352        1.8934748419
 C        -9.7085796150        8.5233420425        1.9466286230
 O       -10.1983658024        9.6300745600        1.8523401964
 C        -8.1502321336        8.3928328314        1.8867428428
 C        -7.6126721764        7.5552669207        0.6586677553
 O        -7.8333185550        6.3901816627        0.6364417314
 C        -6.8620971152        8.1872667382       -0.5713040422
 C        -6.2854258726        7.1641148074       -1.5482722656
 C        -5.1730625569        6.3520362572       -0.7925390091
 O        -4.7599551293        6.5616907559        0.2780240587
 C        -4.5594518590        5.0741077746       -1.6123175085
 C        -5.5448435663        3.9263354218       -1.2324541221
 O        -6.4363195005        3.6750099514       -2.0380357030
 C        -5.3922041651        3.0133560513        0.0543484402
 C        -6.4620371419        3.3942324915        1.0641965415
 C        -7.6624175902        2.4339775553        0.9348770401
 O        -7.5445565590        1.4861831766        0.1467624021
 C        -8.9225171017        2.6715755287        1.7839859172
 C       -10.0794550748        3.0099326857        0.7764957393
 O        -9.8034637137        3.3100567143       -0.3497296369
 C       -11.5232291681        3.1097126930        1.2918043199
 C       -12.5306862370        3.5227739337        0.1883831254
 C       -12.7695743309        2.3083379955       -0.7995005247
 O       -12.6977488260        1.1741018290       -0.3966604458
 C       -12.9549844862        2.4142523771       -2.3950065826
 C       -11.5216385220        2.2380034592       -2.9503337222
 O       -10.7653068896        3.1965833568       -2.8350011759
 C       -11.0274947902        0.8525612852       -3.5002883547
 C       -10.9070205698       -0.2250104929       -2.3848268058
 C        -9.4624615101       -0.7417641379       -2.3125565966
 O        -8.4352513004       -0.0206302864       -2.3061958731
 C        -9.1898343135       -2.3325045334       -2.1944933340
 C        -9.5572709754       -2.9802106567       -3.5831011004
 O       -10.6622479021       -3.4228916555       -3.7535057000
 C        -8.5120046899       -3.1607898470       -4.6131191650
 C        -7.6789788997       -2.5164308950       -1.7894637082
 C       -10.0984768166       -2.8042087410       -1.0802495683
 C       -13.9767973302        1.3200486477       -2.8522596375
 C       -13.5046281466        3.8533230719       -2.7648695516
 C        -9.3773403305        1.4155800939        2.5160101418
 C        -8.8456649287        3.8203063409        2.8077077199
 C        -4.5612167698        5.1984037469       -3.1381416034
 C        -3.0319529106        4.7013195598       -1.1678664518
 C        -7.4687572417        9.7999794634        1.9696340632
 C        -7.7694760906        7.5750044969        3.1664789996
 C       -14.3519735386        7.9637318749        4.0087730478
 C       -13.6321041077        5.9814625640        5.5168422014
 H       -16.8310051365        5.9131844171        3.9907317748
 H       -16.0967135684        4.3751258189        4.5530710483
 H       -16.6418975886        4.5801223369        2.8775380888
 H       -12.1630519247        8.4348654476        2.6019227467
 H       -12.6318521657        7.0943219050        1.4591764808
 H       -10.3082768174        6.7063046479        0.9743488192
 H       -10.0178505830        6.6378977979        2.7218314861
 H        -5.9715681513        8.7106692903       -0.2570831223
 H        -7.4688272725        8.9658532434       -1.0255581154
 H        -5.7777364489        7.6353112102       -2.4458815622
 H        -6.9559052359        6.4685115253       -2.0786598788
 H        -4.3969067271        3.1139383274        0.4226724399
 H        -5.4294580340        2.0174519772       -0.3513957662
 H        -6.8201780012        4.4045063145        0.9625903413
 H        -6.1450630382        3.3469429479        2.1155756282
 H       -11.4801618371        3.7899004617        2.1219936138
 H       -11.9282874327        2.2260868865        1.7304132856
 H       -12.2102623653        4.4059938204       -0.3466767778
 H       -13.5400715285        3.6978946766        0.6009092800
 H       -10.0902944506        1.0287958903       -4.0698882979
 H       -11.6443324053        0.5559628865       -4.3611886349
 H       -11.6808953857       -1.0763062737       -2.4320608472
 H       -10.9871283727        0.2488358745       -1.4612342195
 H        -8.5741590173       -2.2417234990       -5.3036855572
 H        -8.6953518645       -4.0344239612       -5.2055588528
 H        -7.4865018719       -3.1472829495       -4.2379247097
 H        -7.0760385077       -1.9225702835       -2.4661882050
 H        -7.4401404635       -3.6025921213       -1.5883912064
 H        -7.6673319932       -2.0278289003       -0.7550937996
 H       -11.0761628210       -3.1419211792       -1.4307376571
 H       -10.3245443332       -2.0050304076       -0.4387573395
 H        -9.7330297951       -3.6535895545       -0.5107716108
 H       -14.9545006839        1.4100467867       -2.3977720692
 H       -13.7481176989        0.2606519303       -2.8023734921
 H       -14.1863063111        1.4246867281       -3.9607902072
 H       -13.5024580776        4.0327541190       -3.8503048299
 H       -12.8485878564        4.5550223649       -2.2135991460
 H       -14.4732347143        3.9714851426       -2.3428844650
 H        -9.1494920326        0.5888470570        1.9117296613
 H       -10.3721648883        1.6156221822        2.7179860658
 H        -8.8879992898        1.2964223773        3.4675970864
 H        -7.9661082509        3.7130098220        3.4278208537
 H        -9.8174923838        3.8809317026        3.4117691662
 H        -8.7100831694        4.8196431510        2.3242828609
 H        -4.1227278643        4.3011632093       -3.5657986094
 H        -3.8148935083        5.9212212051       -3.3101416460
 H        -5.4932066962        5.5032316940       -3.5212290384
 H        -2.9530762536        4.9278308843       -0.1658550801
 H        -2.2529915327        5.3164453093       -1.6533843813
 H        -2.8057290552        3.5851611438       -1.3748255039
 H        -8.1863831989       10.4705411323        2.4405747837
 H        -7.1420672355       10.0826618201        0.9175968457
 H        -6.5746627959        9.6748529582        2.5570328186
 H        -7.8896495439        8.2082327063        4.0065730790
 H        -6.7141436237        7.3231355275        3.0163280254
 H        -8.3318691955        6.6564201442        3.2597664245
 H       -13.8610490510        8.6235404293        4.6938455191
 H       -15.2952460359        7.8731864857        4.5108570780
 H       -14.4623598382        8.3343199973        3.0084338136
 H       -13.1659450314        5.0036692186        5.4960942835
 H       -14.6403536086        5.8807070125        5.9615355515
 H       -13.0774145827        6.6946147984        6.1172393578
 Na       -8.4518160443        2.2899678202       -2.1439189098
