117

 C        -1.2466350293        6.3168947268        2.2685610401
 C        -1.4624498301        7.3524228572        3.3467770314
 O        -0.9789982896        7.3211917935        4.4268567911
 C        -2.4087929923        8.6110485113        2.9805734982
 C        -3.8136067158        7.9140725300        2.8858635686
 O        -4.0934635076        7.4338129385        1.8069673311
 C        -4.8316510546        7.7920559642        3.9931529089
 C        -5.9344112324        6.7262216330        3.6611944618
 C        -7.3355640260        7.1849452740        3.4057640932
 O        -7.7104428192        8.2738234173        3.0146262889
 C        -8.4850903083        6.1621092525        3.7481541905
 C        -9.8103551630        6.6459441477        3.1774934653
 O       -10.8267364963        6.7023512982        3.8252570811
 C        -9.8011312485        6.9221697808        1.6107503944
 C       -11.2029261414        7.0013687308        0.9668029724
 C       -11.8403284862        5.6236810232        1.1047053190
 O       -11.1497345083        4.5708888451        1.0055196040
 C       -13.4124612734        5.3302414161        1.0861742079
 C       -13.8134105570        4.1368124385        0.1266910197
 O       -13.1728524419        3.6643811466       -0.8529688968
 C       -15.3709917057        3.7972966709        0.1258385453
 C       -15.5792443466        2.2704961118        0.3330156377
 C       -14.2784264354        1.4065296049        0.4636726807
 O       -13.3722550960        1.8551041530        1.1866398709
 C       -14.2348256225       -0.0826944106       -0.0851146084
 C       -13.5217663090        0.0115401657       -1.6497534003
 O       -12.7860578179        0.9406896411       -1.8600803402
 C       -13.8094012972       -0.9538010660       -2.7254339908
 C       -12.7972072630       -0.9422514125       -4.0018985380
 C       -12.9027364036        0.3158773148       -4.9989727984
 O       -13.8648086526        1.0143585522       -4.9814325880
 C       -11.6212173171        0.5951527359       -5.7320943743
 C       -10.4619796700        1.1307141881       -4.7732235258
 O       -10.0674458314        0.2945115967       -3.9875343156
 C        -9.7055280663        2.4612117297       -4.8302841427
 C        -8.4242089442        2.3976931158       -3.9290094059
 C        -8.7674116306        2.2733840370       -2.4171554515
 O        -9.6739173812        2.9362246313       -2.0118311078
 C        -7.9499333536        1.4010256638       -1.4553322894
 C        -8.9259662942        0.2249690366       -1.2430477839
 O       -10.0647512150        0.4520743982       -0.8741531420
 C        -8.5681702921       -1.2869022747       -1.4380323597
 C        -6.5570169300        0.9071371806       -1.9728648957
 C        -7.8046107881        2.0835119006       -0.0644590045
 C       -10.9683842654       -0.6408195762       -6.4272100592
 C       -11.8668252228        1.7840612841       -6.8006391284
 C       -13.3372703091       -1.0035897380        0.7561447967
 C       -15.5622987777       -0.7712544432       -0.3698266848
 C       -13.7820090688        4.8989320324        2.4961344947
 C       -14.1339356860        6.5999232567        0.4237867089
 C        -7.9577849498        4.7819671270        3.2949217192
 C        -8.6171623830        6.1025656582        5.3059231615
 C        -2.3796876212        9.7206022089        4.0525460600
 C        -1.8956550645        9.1337487390        1.6310751009
 H        -2.0158132611        6.1868881518        1.4529278324
 H        -1.2054582572        5.4132281943        2.8876079156
 H        -0.3467733756        6.5229333965        1.6507298372
 H        -5.2924168087        8.7814498617        4.2022275189
 H        -4.2070624379        7.3860407753        4.9178146821
 H        -5.8649689299        5.8892957834        4.4117642499
 H        -5.6231284709        6.2098941206        2.6626033699
 H        -9.2433466537        6.1026563986        1.2266192148
 H        -9.3501130023        7.8670537542        1.3718821250
 H       -11.0889114508        7.0936421461       -0.1519139922
 H       -11.7295888689        7.8712205445        1.3495362212
 H       -15.7090632973        4.2618583821       -0.8455152224
 H       -15.9093032942        4.2939498915        0.9791844258
 H       -16.0357969514        1.8180518304       -0.5253989814
 H       -16.2323853448        2.0806251043        1.2632215622
 H       -14.8140438753       -0.5847770112       -3.0874684749
 H       -13.8821648513       -1.8957510592       -2.1023959347
 H       -13.0204355286       -1.8183409858       -4.5623720561
 H       -11.7816164573       -1.0472390679       -3.7126927640
 H       -10.4848556215        3.2419945704       -4.5637347922
 H        -9.3162590198        2.7702800175       -5.8505874365
 H        -8.0028787271        3.3680741237       -4.1011580832
 H        -7.7406767809        1.6676979112       -4.3875629027
 H        -8.6397777310       -1.4604101318       -2.4832444665
 H        -9.3905637509       -1.7964235369       -0.7941407957
 H        -7.5760500107       -1.4499053984       -1.0938523433
 H        -5.9814951016        1.6433529602       -2.6470033937
 H        -6.7583546111        0.0196204740       -2.6510979098
 H        -6.0602734377        0.5219948839       -1.1750605541
 H        -8.8013952294        2.2655054321        0.3353495120
 H        -7.3148167650        3.1277985123       -0.2144485376
 H        -7.2956197274        1.4317556047        0.6382515119
 H       -11.3921322036       -0.8627740456       -7.4027954229
 H       -10.9167674130       -1.5287816881       -5.9095765195
 H        -9.9112695377       -0.4354727362       -6.6836394071
 H       -12.3348175667        2.6577696221       -6.3949932932
 H       -12.4933787374        1.4647414146       -7.6690942007
 H       -10.9140938292        1.9983714934       -7.3202200543
 H       -13.6463108863       -0.8374873082        1.7749176144
 H       -12.3063384094       -0.6981977477        0.6720550767
 H       -13.3427410755       -2.0533187112        0.4732299970
 H       -16.1674490197       -0.7309584392        0.5753085256
 H       -15.4880110365       -1.8070097925       -0.7057295545
 H       -16.0566807707       -0.2621355750       -1.1183359202
 H       -14.8419666871        4.5610003296        2.5800001987
 H       -13.6702219823        5.8324801039        3.1347121855
 H       -13.1390293151        4.1108210098        2.8664723804
 H       -14.0360762993        6.5131038781       -0.6456911454
 H       -13.6855340976        7.5564422917        0.6962290723
 H       -15.2033671027        6.5292421908        0.7666417119
 H        -7.1547811902        4.4024239941        3.9674927791
 H        -7.5114698806        4.8831199885        2.2708637584
 H        -8.8363436099        4.1447747962        3.3251386540
 H        -8.4537318751        7.0320996461        5.8432907912
 H        -8.0576258485        5.3491198617        5.8586416270
 H        -9.6087082412        5.7638682702        5.5886315962
 H        -2.6762924457        9.2438384264        4.9541424178
 H        -3.1867612247       10.4065722697        3.7965861385
 H        -1.3615564684       10.1772291809        4.1829704300
 H        -1.5974628994       10.1271774996        1.7433556248
 H        -2.6010844379        9.1465174521        0.8479206552
 H        -1.1287433127        8.4743796701        1.2305830258
 Na      -11.5466168856        2.4134831475       -0.3172493563
