117

 C       -16.2131929222        6.2545992167        3.1060314802
 C       -14.7634053643        6.2180784409        2.9418835952
 O       -14.2013787807        5.5243491712        2.1494443103
 C       -13.9024911295        7.2734655385        3.7906098041
 C       -12.5360677712        7.0366237875        3.1556884126
 O       -11.9086188249        6.0493036790        3.5260516394
 C       -11.6985009479        8.0084758302        2.1892539676
 C       -10.3800529896        7.5096616394        1.6903565446
 C        -9.4006788958        8.7224431150        1.4288654374
 O        -9.7788298760        9.7773206721        0.9812976961
 C        -7.8126125188        8.6226231204        1.8916278689
 C        -7.2321222565        7.6348131699        0.9135040425
 O        -7.6224522864        6.4129115235        0.9341397349
 C        -6.3731437606        8.0409735865       -0.2875725558
 C        -6.3258917529        6.9121055423       -1.3318252392
 C        -5.1301456043        5.9872675025       -1.0792937810
 O        -4.4353440991        6.1325429018       -0.1364204417
 C        -4.8114327925        4.8101093599       -1.9737190466
 C        -5.8321028475        3.6785502198       -1.4942884545
 O        -6.9115093982        3.5988391001       -2.0840738765
 C        -5.6197020212        2.8800572076       -0.1703412771
 C        -6.6972710407        3.3220838129        0.9093300841
 C        -7.7060710094        2.2423328017        1.0480501549
 O        -7.5843908768        1.1396032082        0.4518707768
 C        -8.9802218724        2.4811299544        1.9107461129
 C       -10.1404188724        2.8682228537        0.9728281044
 O        -9.9063136251        3.1421372754       -0.2037290588
 C       -11.5776607894        3.1292531065        1.4606272179
 C       -12.5454346844        3.3167220824        0.3314288153
 C       -12.6554374582        2.0588898099       -0.5905511646
 O       -12.4164533404        0.9544586685       -0.1469774996
 C       -12.8841529327        2.3135993249       -2.0824227416
 C       -11.6454007759        1.8294483522       -2.9057713478
 O       -10.7405809647        2.6167769441       -3.0356190935
 C       -11.4678228683        0.4006523929       -3.5428722252
 C       -11.0792668244       -0.7226116364       -2.4765423883
 C        -9.6025966297       -1.0011291830       -2.0712852003
 O        -8.7951715835       -0.0646873163       -1.9353240746
 C        -9.1758719135       -2.3963506722       -1.8809264706
 C        -9.1858743358       -3.1965069701       -3.3671553199
 O       -10.2531243740       -3.4965804216       -3.8459302019
 C        -7.7962894597       -3.5443735710       -3.8937800478
 C        -7.7877123558       -2.4333363075       -1.2764141022
 C       -10.0469288077       -3.1327219054       -0.8676588468
 C       -14.0801170558        1.6209974352       -2.7278205500
 C       -13.0958084833        3.8345187432       -2.4508019374
 C        -9.3911625846        1.2338448789        2.7540299157
 C        -8.8334017080        3.6671065189        2.9484546191
 C        -5.1430202613        4.9851310067       -3.4976586960
 C        -3.3137575491        4.3885551146       -1.7542537829
 C        -7.1761753892       10.0330940420        1.7262040188
 C        -7.7331677460        8.0611987108        3.3378085450
 C       -14.5890350499        8.6445577167        3.7589544266
 C       -13.9485285522        6.7144680441        5.3020241684
 H       -16.5094290314        6.1651280397        4.1749586969
 H       -16.9129479106        5.5978037436        2.5056738890
 H       -16.6000109918        7.2801395472        2.8790804398
 H       -11.4570398378        8.8569214402        2.9207533438
 H       -12.3951257474        8.3762027330        1.4232852679
 H       -10.4890114880        7.0004534095        0.7989691258
 H       -10.0190501791        6.7575855999        2.3375908639
 H        -5.3725545067        8.3341594946        0.0004640672
 H        -6.8894247701        8.8715313587       -0.7668756743
 H        -6.1047075201        7.3909493338       -2.3114134187
 H        -7.2671079060        6.3144497838       -1.3691411044
 H        -4.5856127773        3.0387139759        0.1574041967
 H        -5.7773719801        1.8325296982       -0.3546337261
 H        -7.1769072187        4.3051818597        0.7154009274
 H        -6.1647304795        3.4838232187        1.8061852885
 H       -11.5457179597        3.9025185587        2.1845348962
 H       -11.8753252397        2.3508555033        2.1144022061
 H       -12.2153803754        4.2218199351       -0.1878608178
 H       -13.5597016454        3.5623085201        0.7229693956
 H       -10.6937052710        0.5660597559       -4.3085062843
 H       -12.4662509190        0.0663192101       -3.8624473547
 H       -11.4981166219       -1.5733066716       -2.8304487489
 H       -11.6190416796       -0.4878894204       -1.5164514741
 H        -7.2376151572       -2.6287015375       -4.2904349226
 H        -7.7765204828       -4.2659125416       -4.7133000292
 H        -7.1707104789       -3.9555616672       -3.0945181511
 H        -7.0109924605       -1.9544207473       -1.8836926018
 H        -7.4846503128       -3.5369023718       -1.2014820392
 H        -7.8953859392       -2.0243562053       -0.2406618229
 H       -11.0605734334       -3.1879290192       -1.2819858016
 H       -10.0024637120       -2.8150381161        0.1430695967
 H        -9.7030106090       -4.1777003240       -0.8614405413
 H       -14.9953361173        2.1779033876       -2.5994942416
 H       -14.2577291090        0.5914196128       -2.4078011525
 H       -14.1031486986        1.5428281993       -3.8346062530
 H       -13.4242168646        3.7585203329       -3.4638627959
 H       -12.1193503644        4.2777103749       -2.5632798223
 H       -13.8775393098        4.4041998202       -1.9297482166
 H        -9.1356808249        0.3343658811        2.1515603609
 H       -10.4619372988        1.1428709293        2.9117654016
 H        -8.7708133058        1.2025204473        3.6685359457
 H        -7.9469778530        3.5523374521        3.5939878143
 H        -9.6369212848        3.5721715992        3.7071158505
 H        -8.8112318530        4.7284944862        2.4435377436
 H        -4.8672801204        4.0386266149       -4.0011032208
 H        -4.5221733807        5.7295645117       -3.9020936328
 H        -6.1609943917        5.1997520059       -3.7120172041
 H        -3.0724437069        4.5838626926       -0.7600405209
 H        -2.6042373699        4.9250592447       -2.4355298512
 H        -3.2258691726        3.2756914272       -1.9769546626
 H        -7.8197031566       10.7432534589        2.2678425032
 H        -7.0899846296       10.4286239206        0.6372029183
 H        -6.1534482904       10.0142110857        2.1921414460
 H        -8.2228784577        8.6982351740        4.0172161108
 H        -6.6817465527        7.9155894209        3.6861234975
 H        -8.1078889508        6.9967214434        3.4276108927
 H       -13.8989683642        9.4712378641        3.9200666144
 H       -15.3162772120        8.5121065807        4.5537251142
 H       -15.1559430693        8.9408363926        2.8352983743
 H       -13.4623360499        5.7155767448        5.5210332435
 H       -14.9945128270        6.7295589674        5.6867610729
 H       -13.5060086014        7.4808925945        5.9546299504
 Na       -8.7853006104        2.2391803827       -1.8830659948
