117

 C       -16.2331535751        6.6433202563        2.8049070250
 C       -14.7641785206        6.3855460128        2.6406763885
 O       -14.1971198534        5.5701326237        1.9678384175
 C       -13.8460286902        7.3221539204        3.5968281499
 C       -12.3623333954        7.1105972654        3.2801495183
 O       -11.6810586406        6.2390078498        3.7675720687
 C       -11.6588213432        8.1839521481        2.4171628192
 C       -10.3039982307        7.7736895958        1.8836177208
 C        -9.4151185121        8.9027598977        1.4291217890
 O        -9.8532623370        9.9221804563        0.9397940938
 C        -7.9048595994        8.7127324124        1.8014206211
 C        -7.2863008482        7.6008407122        0.8712193777
 O        -7.4836042512        6.4098879700        1.1037092995
 C        -6.4764433489        8.0913295571       -0.4134366738
 C        -6.1458148477        7.0453165673       -1.4857473285
 C        -5.0739875136        6.0006282702       -1.0441809725
 O        -4.4378574698        6.0356493143       -0.0754345483
 C        -4.9433045038        4.6828567326       -2.0364186468
 C        -5.9095300125        3.7039479122       -1.5334512359
 O        -6.8816730177        3.4669143364       -2.2378043992
 C        -5.6736297746        2.9418187263       -0.1917854374
 C        -6.7031365151        3.2669773358        0.8981345542
 C        -7.8345808172        2.2654199214        1.0139440442
 O        -7.8334454980        1.2663202742        0.3283534501
 C        -9.0152055174        2.4533462928        2.0947926497
 C       -10.1915329475        2.9646781159        1.1969329091
 O        -9.8508551684        3.5410637771        0.1268459439
 C       -11.6654344664        2.6995632577        1.5949564080
 C       -12.5818268765        3.1508909448        0.3818314742
 C       -12.6867065550        1.9839436590       -0.6358765320
 O       -12.7143675549        0.8340181982       -0.2701095540
 C       -12.8387582900        2.2591672207       -2.1822448407
 C       -11.5344834319        1.6837175339       -2.8577486450
 O       -10.6294130950        2.4697153485       -3.0628209963
 C       -11.4320591210        0.2951288961       -3.4228732936
 C       -11.1895895112       -0.8756205171       -2.3399324505
 C        -9.6212220760       -1.0857265034       -2.1192143892
 O        -8.7610233199       -0.2160987070       -2.3147227937
 C        -9.0957874919       -2.5352525779       -1.7775617857
 C        -9.0947489034       -3.2005821312       -3.2003630673
 O       -10.1463529470       -3.3427722287       -3.8089219743
 C        -7.8808115367       -3.8469944502       -3.6960251622
 C        -7.8138124893       -2.4326013687       -1.0109813745
 C       -10.1209662040       -3.3421853806       -0.9090333218
 C       -14.1657690219        1.5387624469       -2.5084102499
 C       -12.9969294035        3.7929889586       -2.6114349429
 C        -9.3173452413        1.0776416174        2.8775651954
 C        -8.6725251138        3.5283442133        3.1357083169
 C        -5.2974971835        5.2089343654       -3.5176491399
 C        -3.5698119756        3.9699986226       -2.0647374044
 C        -7.2134674167       10.1075169176        1.5354047062
 C        -7.7146186797        8.2035051613        3.2737501928
 C       -14.1361289889        8.8574149833        3.4149645185
 C       -14.1197503238        7.0883833886        5.1029572630
 H       -16.6155985301        6.2459563509        3.7337567529
 H       -16.8832243706        6.1468978377        2.1078132109
 H       -16.4506844392        7.6457853443        2.7446146559
 H       -11.5224918554        9.0355650109        3.1131278287
 H       -12.3455893771        8.6782365221        1.7007392787
 H       -10.5242808337        7.0278586376        1.0106378792
 H        -9.6480593301        7.1693983479        2.5845797750
 H        -5.5028215213        8.4772629357       -0.0105643940
 H        -7.0451697145        8.8921906436       -0.8798512008
 H        -5.6931543157        7.5572806698       -2.3040280454
 H        -7.0803944727        6.5457812116       -1.7856425613
 H        -4.6042360278        2.9988902482        0.1345427662
 H        -5.8864836235        1.8616611983       -0.3376973889
 H        -7.0887145705        4.2972178280        0.8000109832
 H        -6.1146531658        3.3135771644        1.8698471614
 H       -11.8422679874        3.1241351695        2.5906549035
 H       -11.8004586437        1.6269001545        1.8660036076
 H       -12.2127997737        4.1044296973        0.0189840804
 H       -13.5575400657        3.3570593942        0.7836502776
 H       -10.5491858020        0.2973651060       -4.0495567529
 H       -12.3324658646        0.1282325377       -3.9892526032
 H       -11.5981478441       -1.7948855833       -2.6890216119
 H       -11.6759004639       -0.6632920367       -1.3351823839
 H        -7.0315354189       -3.2073362327       -3.7710676687
 H        -7.9852525556       -4.2604068945       -4.7039046616
 H        -7.6264413387       -4.6196972683       -3.0130433216
 H        -6.9687886713       -2.2292994811       -1.6431355698
 H        -7.6502839495       -3.2910695796       -0.4063349447
 H        -7.9301969731       -1.6356912858       -0.3374642937
 H       -10.9241270071       -3.7017555881       -1.5562350621
 H       -10.4891855744       -2.7186131811       -0.0571340457
 H        -9.6686987281       -4.2435261418       -0.5022064839
 H       -14.9992629468        1.8540611715       -1.8758736218
 H       -14.0287695660        0.4607356663       -2.3745655983
 H       -14.5323905429        1.6171405101       -3.5184283395
 H       -13.1694681197        3.9115201326       -3.6722547220
 H       -12.1814624203        4.4341098892       -2.3274918055
 H       -13.9711374564        4.0554730257       -2.1274097125
 H        -9.8836061581        0.3394399764        2.2735322358
 H        -9.9475658892        1.2863916170        3.7666454090
 H        -8.4628131303        0.4872256370        3.1910937996
 H        -7.7317223098        3.2754632075        3.5865586261
 H        -9.4340687738        3.5727058790        3.8445592442
 H        -8.3129362925        4.5106885081        2.7183926117
 H        -5.0318561575        4.5229488901       -4.3446792384
 H        -4.6975018595        6.0792869430       -3.8242019079
 H        -6.3940014768        5.4001921220       -3.4919283759
 H        -3.2486552590        3.5143618797       -1.1553517497
 H        -2.7833638249        4.7342843068       -2.2575931064
 H        -3.5693147901        3.3515657300       -2.9372249756
 H        -7.2508989865       10.7322356887        2.3536699969
 H        -7.6751988751       10.5695581177        0.6821001297
 H        -6.1930234647       10.0076183032        1.1962828323
 H        -8.3898106342        8.6609000493        3.9617297890
 H        -6.7242266569        8.3559240576        3.6727043553
 H        -7.9078930903        7.1093076698        3.3635882907
 H       -13.5787249909        9.3794464319        4.1775825007
 H       -15.1712643698        9.0247124660        3.6717141066
 H       -13.8491600340        9.3331801890        2.4800020606
 H       -13.9142420417        6.0563252244        5.3836721997
 H       -15.1279377753        7.2141870676        5.3701443603
 H       -13.5487093158        7.7478021664        5.7071805457
 Na       -8.7603233791        2.0478823569       -1.6581698241
