117

 C       -16.1214924558        6.8924462884        2.1819588428
 C       -14.6408867535        6.7752258807        2.3044053096
 O       -13.9556455777        6.0594445614        1.5908608926
 C       -13.9212732583        7.6688329448        3.4426665175
 C       -12.2970691556        7.3685896822        3.2995958899
 O       -11.7002187582        6.4875582810        3.8830929106
 C       -11.4864921391        8.1074190516        2.1521685110
 C       -10.0037171048        7.9472113831        2.2284669035
 C        -9.1456796579        8.9708382467        1.4998687443
 O        -9.7125206652        9.7737697282        0.7961795033
 C        -7.5909369525        8.8992053990        1.7772377390
 C        -7.0938021873        7.7563778347        0.7802509912
 O        -7.4464816454        6.5787600744        1.0173749872
 C        -6.2053539906        8.0940684352       -0.4267207459
 C        -6.2533778439        7.0946581918       -1.6097813741
 C        -5.2834128498        5.9011980736       -1.1801619321
 O        -4.6598888548        5.8957925497       -0.1176299673
 C        -5.1415645579        4.6765524482       -2.1528144049
 C        -6.0793173392        3.6377163132       -1.4855108140
 O        -7.0558262590        3.3566686741       -2.1547818938
 C        -5.7043897903        2.9682264021       -0.1964529724
 C        -6.8084077027        3.2639469182        0.9408109140
 C        -7.7663201134        2.1474311433        1.1527877659
 O        -7.4740591404        1.0844493682        0.5536224618
 C        -9.0761673885        2.4074637251        2.0023621223
 C       -10.2559810641        2.9395991605        1.0488050526
 O       -10.0060745363        3.2193705807       -0.0797355692
 C       -11.6896758622        2.9281526460        1.6208423482
 C       -12.7853799245        2.9965074965        0.5207793172
 C       -12.7535415938        1.8294046883       -0.4172360313
 O       -12.6388269075        0.6435059379       -0.0741242684
 C       -12.9981994713        2.1028253063       -2.0120825093
 C       -11.6020658467        1.6453629644       -2.6389443760
 O       -10.6757993319        2.4244217367       -2.6152116121
 C       -11.5149942778        0.3098080648       -3.4869951369
 C       -11.1698028775       -0.9416469768       -2.6441649355
 C        -9.7183328195       -1.0743042236       -2.1489571377
 O        -8.8153283759       -0.2617595882       -2.0655995284
 C        -9.2837826911       -2.5759755429       -1.6828641428
 C        -9.1277067283       -3.4158840899       -2.9834048285
 O       -10.0171371847       -3.4260060463       -3.8034355518
 C        -7.8902100491       -4.2931419840       -3.2305285830
 C        -7.8952414675       -2.4584276178       -0.9408129345
 C       -10.2687743142       -3.3298583199       -0.7743492905
 C       -14.2543649419        1.2739621663       -2.3474852083
 C       -13.1970411387        3.5633213339       -2.4411082964
 C        -9.4113154848        1.1673374765        2.7402530571
 C        -8.8976794550        3.6146684562        3.0421465766
 C        -5.5659026448        4.9786584362       -3.5806948757
 C        -3.7099452557        4.1038797382       -2.2899788511
 C        -7.0199227734       10.2858672506        1.4767085320
 C        -7.1386312768        8.3963023930        3.1798568857
 C       -14.1823564346        9.1822766900        3.3352024804
 C       -14.3494830864        7.1816125904        4.8297694144
 H       -16.6931202577        6.7622906137        3.0294803828
 H       -16.5362799370        6.1263341637        1.6234376893
 H       -16.3930093106        7.8406120081        1.7149381729
 H       -11.8021321265        9.2281425641        2.0743684634
 H       -11.7617503575        7.6701761226        1.1866223744
 H        -9.6945904020        6.9630860515        1.7719988455
 H        -9.6363731899        7.9536390699        3.3304406892
 H        -5.1758219525        8.1333297816       -0.0443895563
 H        -6.4748937559        9.1219835401       -0.7657047049
 H        -5.8295299027        7.6126814693       -2.4738507105
 H        -7.2352291548        6.7145231159       -1.8960556923
 H        -4.7238361383        3.3790250734        0.1291617954
 H        -5.5411601874        1.8715940959       -0.2822001510
 H        -7.2767514676        4.2863472101        0.6615695811
 H        -6.1850005197        3.4715987124        1.7894344129
 H       -11.8055853698        3.6448232825        2.4518952738
 H       -11.7492668681        1.9794069711        2.1605656611
 H       -12.7472246897        3.9690784413        0.0756021146
 H       -13.7389246575        2.8803196961        1.0414886533
 H       -10.8166305201        0.3760532323       -4.2997399682
 H       -12.4125106950        0.0907803410       -4.0336502212
 H       -11.4380330728       -1.8420729511       -3.1378976416
 H       -11.8606436480       -0.9951408263       -1.7579094504
 H        -6.9756538894       -3.7632056732       -3.5669179842
 H        -8.1130325069       -4.9947499731       -3.9819258092
 H        -7.5948530736       -4.8593237206       -2.3711133902
 H        -7.2064608036       -1.9238892338       -1.5001782584
 H        -7.4912076774       -3.3535789919       -0.5866312059
 H        -7.9688766593       -1.8261102317       -0.0688890589
 H       -11.2201190205       -3.4847367259       -1.3156870520
 H       -10.4481277837       -2.7549269081        0.0970036328
 H        -9.7694796134       -4.2943239731       -0.5319337316
 H       -14.9865338755        1.5121250447       -1.6179270018
 H       -14.1642730410        0.2206861591       -2.2122854760
 H       -14.6823811211        1.4265290185       -3.3799110059
 H       -13.3305899937        3.5486072749       -3.5191265993
 H       -12.2876334036        4.1200507223       -2.1245166677
 H       -13.9988694822        4.0830142805       -1.9558324284
 H        -9.7099056267        0.3537183086        2.1122612742
 H       -10.2255397068        1.3031137250        3.4174278070
 H        -8.6885262988        0.8510872858        3.4889469844
 H        -7.8828868281        3.7049630087        3.4040348699
 H        -9.6376986279        3.4860561674        3.8756758439
 H        -9.1362573884        4.5414282813        2.5697513256
 H        -5.3388281711        4.0599200993       -4.2201090271
 H        -4.9350259721        5.7995890054       -4.0183652200
 H        -6.6047605940        5.2538688272       -3.8763166291
 H        -3.2693359157        4.1255077329       -1.2924220188
 H        -3.0658164328        4.6951192229       -2.9018590685
 H        -3.6634980763        3.0422381001       -2.6518562133
 H        -7.6885918011       10.9479676858        0.9455360841
 H        -6.1013027387       10.2331071122        0.9575684791
 H        -6.7841709349       10.7373087448        2.3714652175
 H        -7.4683600276        8.9856690319        4.0109353870
 H        -6.0579051804        8.4142163488        3.2378803703
 H        -7.4953426391        7.4397827426        3.4349549374
 H       -14.0008205187        9.6993505526        4.2595237205
 H       -15.2094597699        9.3907596826        3.0506568395
 H       -13.6420539059        9.6268876126        2.5084637632
 H       -14.0329158504        6.2043733600        5.0833037731
 H       -15.4219148830        7.0985599451        4.9303683393
 H       -13.9353947188        7.8005293856        5.5838223188
 Na       -8.5081461035        1.8355038993       -1.4247308339
