117

 C       -15.9560985246        7.0392258869        1.8370358843
 C       -14.4646974170        6.9344975590        1.9892033850
 O       -13.8078632340        6.2531679726        1.2349548349
 C       -13.7609422478        7.7173020057        3.2776783107
 C       -12.2469260359        7.4197909405        3.1987262798
 O       -11.7883769236        6.6176060444        4.0265077839
 C       -11.3616017624        8.0229787882        2.1084873760
 C        -9.8818748554        8.2955261502        2.7156329146
 C        -9.0799389924        9.0620050494        1.6352800364
 O        -9.5526202085        9.7607269751        0.7701604622
 C        -7.4841874890        8.8614756437        1.7272946411
 C        -7.0828380978        7.7937619952        0.6583922916
 O        -7.4461996948        6.5962322576        0.7799212226
 C        -6.3893188890        8.2127743336       -0.6478095863
 C        -6.0878772595        7.1163944085       -1.6092439844
 C        -5.2207871276        5.9534868161       -1.1787856868
 O        -4.4895668558        5.9943438569       -0.1786552077
 C        -5.1724895207        4.7563061293       -2.0819347422
 C        -6.0552813871        3.6304371090       -1.4926480231
 O        -7.0526380315        3.2710376903       -2.1315960676
 C        -5.7696816855        3.0572883085       -0.0801450255
 C        -6.8904124238        3.4509829273        0.9236601163
 C        -7.8143354029        2.2044436829        1.1461493671
 O        -7.4891209847        1.1051888111        0.6943833609
 C        -9.0601040308        2.4632364907        2.0613545721
 C       -10.2841632766        2.7465473494        1.1818574183
 O       -10.1942627625        2.6359774694       -0.0127804489
 C       -11.7532297613        2.9677514873        1.6764830847
 C       -12.6604903120        3.1717620218        0.4754720569
 C       -12.6916354794        1.8843910703       -0.3555665354
 O       -12.4393014300        0.7826301705        0.1328669413
 C       -13.0216620040        1.9536849715       -1.9354233285
 C       -11.6578812153        1.6657331629       -2.6259044500
 O       -10.7295541425        2.4298254316       -2.7012940326
 C       -11.4557130943        0.3074538448       -3.2797949114
 C       -11.2057847972       -1.0254421571       -2.5166146591
 C        -9.8293083778       -1.2650884720       -2.0839795934
 O        -9.0432059821       -0.3419682101       -2.1443080621
 C        -9.3365846464       -2.6525943060       -1.6498755286
 C        -9.1616409782       -3.6107537035       -2.9511639731
 O       -10.0504264268       -3.5562205225       -3.7612548042
 C        -7.9230937709       -4.5785464077       -3.0847141840
 C        -8.0717507628       -2.5203986787       -0.8160976644
 C       -10.4283865649       -3.2230617308       -0.7694891727
 C       -14.0965712609        0.9537038015       -2.2906276967
 C       -13.4587030722        3.3401364147       -2.3276828510
 C        -9.3178380932        1.2268183206        2.9146051968
 C        -8.9915498504        3.7124255461        3.0436000677
 C        -5.6063115946        5.0247551671       -3.5392919243
 C        -3.7608237816        4.2120271306       -2.2760007994
 C        -6.9097926465       10.2173224026        1.4663645349
 C        -7.0334574859        8.4137733500        3.1896930634
 C       -14.0743206540        9.1994523846        3.2327702041
 C       -14.3111076093        7.2030651826        4.5643077075
 H       -16.4792782506        7.4187380328        2.7101943605
 H       -16.5431191146        6.1462344404        1.5636241147
 H       -16.1481699579        7.8681705176        1.0613589246
 H       -11.8311706050        8.9180198403        1.7738809583
 H       -11.3622702934        7.3047851902        1.3512124235
 H        -9.3126179731        7.4864563986        3.1063531303
 H       -10.1620355102        9.0130689758        3.4895266439
 H        -5.5311214588        8.8728251767       -0.4380245339
 H        -7.1186912373        8.8567535388       -1.1369344732
 H        -5.5512104168        7.5515447442       -2.4372844499
 H        -7.0189564147        6.7395612889       -2.0836696201
 H        -4.7541427318        3.3083204886        0.2511741965
 H        -5.7756716619        1.9938237771       -0.0692526702
 H        -7.3665378147        4.3485802445        0.5610432090
 H        -6.3562555189        3.7234249479        1.8176780621
 H       -11.8065095768        3.7174667880        2.5024267837
 H       -12.0875425037        1.9774680903        2.1285947714
 H       -12.2584576009        4.0226453567       -0.0748760593
 H       -13.6718717927        3.3875068564        0.8539487080
 H       -10.5994542413        0.3737813371       -3.9538592605
 H       -12.2231547744        0.0784639256       -4.0313266542
 H       -11.5268638412       -1.8512559475       -3.1247469078
 H       -11.9371534622       -1.1577840850       -1.6144997437
 H        -6.9006303729       -4.1106457663       -3.3318817205
 H        -8.1454827772       -5.2914670472       -3.8155145804
 H        -7.7127261961       -5.1528296359       -2.1845152456
 H        -7.1608927040       -2.4199169243       -1.4272740420
 H        -7.8049226279       -3.4394737877       -0.2027015127
 H        -8.0106558221       -1.5992850697       -0.1335895443
 H       -11.3561162300       -3.2284738959       -1.3543169196
 H       -10.5675800242       -2.5946514336        0.0725662177
 H       -10.1192746601       -4.2134178315       -0.4400833757
 H       -15.1214832200        1.1657990118       -2.0354369132
 H       -13.8608345163        0.0023366669       -1.7899334691
 H       -14.0177710714        0.7423118430       -3.4023151549
 H       -13.8741103546        3.4237928551       -3.3155353895
 H       -12.6070934190        4.0184098882       -2.2017147991
 H       -14.1724396532        3.6988142667       -1.5714818646
 H        -9.6919523678        0.3622443537        2.3788539352
 H       -10.0744687067        1.3642630213        3.6688103383
 H        -8.4512976411        0.9509209401        3.5309783162
 H        -8.4139063273        3.4792754871        3.8901628910
 H       -10.0001257572        3.9888318256        3.4207835121
 H        -8.6943686358        4.6078564155        2.4866593740
 H        -5.5331399662        4.0857540610       -4.0742213493
 H        -5.0494691717        5.8000282260       -3.9453825045
 H        -6.5849535930        5.3168956445       -3.7953028679
 H        -3.3459511398        3.8734259820       -1.3876090120
 H        -3.1784538124        5.0139078070       -2.7346825674
 H        -3.6971384347        3.3224843078       -2.9460658016
 H        -6.5800918157       10.4261106167        0.4210664734
 H        -5.9731673633       10.4377085735        2.0827464520
 H        -7.6575460191       10.9581248250        1.7471049645
 H        -7.4755577466        8.9888194071        3.9831027489
 H        -5.9255820979        8.4206767241        3.3305203512
 H        -7.2992566409        7.3555042965        3.4483768989
 H       -13.6052996669        9.6087924578        4.1183518414
 H       -15.1307947181        9.4500855220        3.2543443954
 H       -13.7207325730        9.7753881499        2.3490856901
 H       -14.2903259217        6.0912732665        4.6759112769
 H       -15.3611356243        7.5147065370        4.7422306912
 H       -13.7042496731        7.5263637339        5.4194715350
 Na       -8.7870094390        1.8142145891       -1.6053363211
