117

 C        -1.4094168073        6.3993359596        2.3228269093
 C        -1.5147517359        7.6623875944        3.1879374052
 O        -0.8891661556        7.6120506578        4.2864072938
 C        -2.4568430755        8.7917570953        2.7886820321
 C        -3.7956643015        8.0167530144        2.5400051286
 O        -4.0783419735        7.4995735844        1.4671075230
 C        -4.7182009225        7.9365314485        3.7809862654
 C        -5.7797680757        6.8341790623        3.6701345538
 C        -7.2238455873        7.2835756073        3.4543779587
 O        -7.4006032614        8.4259516765        3.0372400996
 C        -8.3452659832        6.3073777432        3.7206410657
 C        -9.7495068319        6.6556616353        3.0029078370
 O       -10.7696120151        6.7419842481        3.6803291402
 C        -9.7056266894        6.8476827927        1.4877247980
 C       -11.1668940501        6.6343623658        0.9918304338
 C       -11.8076552529        5.2288349014        1.0733802452
 O       -11.1036756751        4.2505433234        1.1425038449
 C       -13.4076682238        5.2205028765        1.0600264241
 C       -13.8723498371        4.1841307446       -0.1277826078
 O       -13.0585545163        4.0229420666       -1.0141830995
 C       -15.3681720059        3.6917559121       -0.0533818527
 C       -15.6331922921        2.1638122076       -0.0572533216
 C       -14.3943161355        1.3109495031        0.4010223011
 O       -13.4800629568        1.7327456311        1.0501019451
 C       -14.3902448957       -0.0804633505       -0.1278998442
 C       -13.5657777295        0.0489601732       -1.4186605838
 O       -12.6894987432        0.8209982606       -1.7342942744
 C       -13.8942454299       -0.8646004892       -2.6423794261
 C       -12.7560746663       -0.8977777782       -3.7003022462
 C       -12.8730564529        0.1996822354       -4.7234755400
 O       -13.9020133756        0.8093876191       -4.9845731510
 C       -11.6639636852        0.6114047899       -5.5669619524
 C       -10.4623863395        1.0931230048       -4.5226680365
 O       -10.1808386259        0.3961926538       -3.5760191763
 C        -9.5689091840        2.3191171004       -4.8070073284
 C        -8.3359546004        2.3017828355       -3.8548047333
 C        -8.8131563549        2.1913083174       -2.4558175575
 O        -9.8314830781        2.7896584033       -2.0601321173
 C        -8.0183918292        1.3925591327       -1.4174477890
 C        -8.9499101326        0.0813930709       -1.0444436555
 O       -10.0003011190        0.2006540572       -0.4742830507
 C        -8.3670829517       -1.3119382972       -1.3085419660
 C        -6.6232330446        0.9797824622       -1.9191591203
 C        -7.7871926698        2.1612295407       -0.1190455735
 C       -11.0007213311       -0.5762464910       -6.2722230466
 C       -12.0335163232        1.5775721865       -6.6376030221
 C       -13.5764493223       -1.0486150142        0.8060231625
 C       -15.8011984218       -0.6642574674       -0.2605793305
 C       -13.7462507335        4.9450070862        2.5323118906
 C       -14.1878673646        6.5654642293        0.7353852053
 C        -8.0693292351        4.8875273229        3.1572704370
 C        -8.5349141987        6.1747084204        5.2202235974
 C        -2.5326168850        9.8940872850        3.8654326759
 C        -2.0054148998        9.4124672957        1.4133712555
 H        -2.3707251548        6.1238392554        1.9163626918
 H        -1.1083103759        5.5295746806        2.8489079704
 H        -0.8848260619        6.6628460387        1.4480247972
 H        -5.3724091743        8.8077386487        3.7409636458
 H        -4.1567354947        7.8792902605        4.6304145251
 H        -5.7042576271        6.2282014538        4.5750319274
 H        -5.5360131555        6.1296320769        2.8830571492
 H        -9.0896461392        6.0091165080        1.0703834773
 H        -9.3256242220        7.8734355147        1.3278077648
 H       -11.2385793719        6.9350712096       -0.0569363977
 H       -11.7911184512        7.3587483028        1.5774915699
 H       -15.6565479203        4.0549318480       -1.0284571329
 H       -15.8772007607        4.1678914336        0.7337619979
 H       -15.9290241133        1.8555051509       -1.0901744549
 H       -16.3793813839        1.9171182765        0.6372842908
 H       -14.7185920991       -0.3624645392       -3.1359580970
 H       -14.2027360044       -1.8731211140       -2.3623778042
 H       -12.7948721739       -1.8946854144       -4.1855074743
 H       -11.7699726499       -0.8178055915       -3.2128486139
 H       -10.1191777611        3.2073524391       -4.6032681746
 H        -9.3803473474        2.3575789112       -5.8516937680
 H        -7.7748822125        3.2727717652       -3.9771522933
 H        -7.6445667054        1.4976210556       -4.0830688651
 H        -8.2204990148       -1.3949279966       -2.3800159070
 H        -9.0409705172       -1.9712092965       -0.8602226562
 H        -7.3922410702       -1.2342269902       -0.8544683606
 H        -6.1588695625        1.8585445853       -2.2036679051
 H        -6.6181200278        0.3954662862       -2.7745103393
 H        -6.0673984976        0.4457574721       -1.0635495186
 H        -8.7421819288        2.2770222504        0.3575236354
 H        -7.3447728968        3.0435299803       -0.3218961253
 H        -7.2416645848        1.5461822630        0.5576339429
 H       -11.6809357455       -1.2245045499       -6.8232644074
 H       -10.4661717318       -1.2860102801       -5.5333075710
 H       -10.2455615043       -0.3393051015       -6.9989201908
 H       -12.6631966540        2.4042171259       -6.3109910918
 H       -12.5782744765        1.0387130552       -7.3312209654
 H       -11.2041236711        1.9517540212       -7.1848033895
 H       -14.0144446057       -1.0254392327        1.7810670496
 H       -12.5281857300       -0.7911502494        0.9230857798
 H       -13.5975605358       -2.0142336936        0.3430972347
 H       -16.2768258696       -0.5979936854        0.7202245541
 H       -15.6958939738       -1.7146441721       -0.6222377779
 H       -16.5039692973       -0.1543107527       -1.0328466274
 H       -14.7519133004        5.1656241380        2.8115743095
 H       -13.0680094325        5.4821935445        3.1989322006
 H       -13.5269298750        3.9084331798        2.6770185697
 H       -13.6256212787        7.2696307440        0.1430335536
 H       -14.2203252151        7.0346658907        1.7042752897
 H       -15.1665037756        6.3858589806        0.4552680132
 H        -7.2143516385        4.4850393058        3.6897629862
 H        -7.8116653362        5.0425698843        2.1227611686
 H        -8.9467765581        4.2355622991        3.3015829188
 H        -7.7954700102        6.6992669236        5.7783134014
 H        -8.5311728308        5.2135007493        5.6571910283
 H        -9.4650531692        6.5745916542        5.5829082474
 H        -3.3732891643        9.8886885692        4.5558788281
 H        -2.6020017315       10.7968536082        3.2821651199
 H        -1.6595778679        9.7622134841        4.3832791624
 H        -1.0967204706       10.0620031928        1.6199072610
 H        -2.8135719954       10.0994991574        1.0168422772
 H        -1.8878114240        8.7467768447        0.5695095678
 Na      -11.3321475272        2.3150486746       -0.3663818447
