117

 C       -15.6808524795        7.3409318945        1.5148307917
 C       -14.2438556959        7.0973530332        1.7396639276
 O       -13.5752081584        6.4392655829        0.9774325927
 C       -13.6831643029        7.7018431982        3.0497452269
 C       -12.2373964657        7.3870426786        3.1888561738
 O       -11.8026205511        6.6714352726        4.1228740156
 C       -11.2441863821        8.0450249962        2.1652313766
 C        -9.8686918206        8.4086566619        2.7756407673
 C        -8.9018348366        9.0884616162        1.6440167402
 O        -9.4083845104        9.5937418852        0.6378529489
 C        -7.3491306960        8.9101060007        1.7694748939
 C        -7.0397754309        7.9159968676        0.6057189279
 O        -7.5343204093        6.7892941946        0.7167724668
 C        -6.2582440176        8.3222595890       -0.6761350306
 C        -6.3449603359        7.1611473024       -1.6193429618
 C        -5.2650699137        6.1093862098       -1.3322254543
 O        -4.4216778491        6.2411397197       -0.4182034239
 C        -5.2016741800        4.7934389819       -2.1139565507
 C        -6.1005890676        3.7676278614       -1.4041827738
 O        -6.9565591150        3.2347308753       -2.1449528608
 C        -5.8573007289        3.2262028204        0.0275731315
 C        -6.9817209534        3.4899710294        1.0549060379
 C        -7.9125263864        2.3269558116        1.2192291547
 O        -7.9533527889        1.3605827967        0.5333205378
 C        -9.0793595877        2.6285654740        2.3003153073
 C       -10.2907682541        2.6693269229        1.2807856250
 O       -10.1339572147        2.2561921851        0.1222945369
 C       -11.7130127627        3.1105626078        1.7219122319
 C       -12.6881997617        3.0231661799        0.5314226892
 C       -12.6287931447        1.7831197986       -0.3357465572
 O       -12.4662880771        0.6977915569        0.1941584323
 C       -13.0798101052        1.8046449063       -1.9214153679
 C       -11.6666462461        1.5031323911       -2.6725900107
 O       -10.8807579796        2.4279498307       -2.8384065719
 C       -11.4069278989        0.1682416281       -3.3551479881
 C       -11.2727219640       -0.9096722359       -2.2750249235
 C        -9.7549590453       -1.2791780747       -2.0277079574
 O        -8.7907289345       -0.5585306718       -2.2896040756
 C        -9.4595326728       -2.7545363253       -1.4797877181
 C        -9.3944344574       -3.6237384752       -2.8106290472
 O       -10.2285667816       -3.5823383845       -3.6777576733
 C        -8.2421097077       -4.6393809180       -2.8432227068
 C        -8.2103161852       -2.7265084686       -0.6202858724
 C       -10.6270193479       -3.4334453549       -0.7117065957
 C       -14.1390274386        0.6573472324       -2.0226405462
 C       -13.6433892536        3.1327202967       -2.3420674288
 C        -9.2542516640        1.3644571127        3.1245327637
 C        -8.9130141630        3.8629466231        3.2199773677
 C        -5.4856464653        4.9236193874       -3.6190352691
 C        -3.7096394795        4.3682241421       -2.0351292371
 C        -6.6663011979       10.2989756614        1.5546927935
 C        -6.8037651701        8.2356528184        3.1191368930
 C       -13.9558968518        9.1892077371        3.0593919641
 C       -14.4644626599        7.0660938101        4.2595302048
 H       -16.0465762017        8.0993903712        2.1633872768
 H       -16.2574806403        6.4086666942        1.6306390792
 H       -16.0027154930        7.6571905106        0.5019793295
 H       -11.8385609363        8.9287211789        1.8758967662
 H       -11.0439755853        7.2908543415        1.3020168324
 H        -9.4049394364        7.5773269372        3.3073773043
 H       -10.1078061693        9.2140198051        3.4669399654
 H        -5.2131050981        8.5757159250       -0.4342853108
 H        -6.6895523222        9.2379431232       -1.0245881809
 H        -6.1265320287        7.4282231413       -2.6674701156
 H        -7.3492160822        6.6809635735       -1.6945982767
 H        -4.8108556471        3.4488197336        0.3416396854
 H        -5.8044049551        2.1309797304       -0.1738281090
 H        -7.5134611271        4.3223812656        0.6525298304
 H        -6.5844945486        3.8125333352        2.0690941672
 H       -11.7350418630        4.1195360214        2.0543658440
 H       -12.0426622195        2.4872446254        2.5180438565
 H       -12.4906937987        3.9503413541       -0.0268088245
 H       -13.6745503593        3.1155448306        1.0034528101
 H       -10.4675422952        0.1829146732       -3.9074735714
 H       -12.1777867514       -0.0417293328       -4.1427713160
 H       -11.8346817552       -1.8250172588       -2.4265420581
 H       -11.6911125806       -0.4725871328       -1.4147498681
 H        -7.2273347043       -4.1627300881       -2.6540476978
 H        -8.2351150889       -5.1789678568       -3.7326915260
 H        -8.2444977990       -5.3825306511       -2.0429351729
 H        -7.4120949929       -2.1988364759       -1.0059232107
 H        -7.7285047113       -3.6663409646       -0.4785355685
 H        -8.4758985077       -2.3763116007        0.3385139013
 H       -11.4702819005       -3.6776189130       -1.3687279841
 H       -10.9056295988       -2.7015279957        0.0663218714
 H       -10.2173086103       -4.2979583122       -0.2161106641
 H       -14.9748066870        0.8651819946       -1.3385569422
 H       -13.6681481820       -0.3005708312       -1.7523200352
 H       -14.6116184185        0.5570819475       -2.9975676687
 H       -13.8942439195        3.0881055143       -3.3915193892
 H       -12.9220679698        3.9244596391       -2.2492476935
 H       -14.5927164314        3.3607583511       -1.7867205463
 H        -8.9433314889        0.4114906177        2.6395839079
 H       -10.2599210780        1.0969470899        3.4604904152
 H        -8.5561957299        1.4062219854        3.9818264712
 H        -8.0412817535        3.7984463166        3.8180070616
 H        -9.6493681412        3.7002896189        4.0443430356
 H        -9.2581200876        4.8101393088        2.6966080857
 H        -5.3433071467        3.9668967386       -4.1861438522
 H        -4.9838869398        5.7742356353       -4.0382321803
 H        -6.5174850087        5.2132546844       -3.9030518953
 H        -3.2590087933        4.4106722087       -1.1087831516
 H        -3.1310514941        4.8912204081       -2.8679918198
 H        -3.6617908539        3.2802648845       -2.2783521784
 H        -7.3117230848       11.0373027370        1.1859830457
 H        -5.8958822639       10.2401985512        0.7793144120
 H        -6.1991994533       10.6306886374        2.4386085790
 H        -6.9803963802        8.8219486969        3.9674717729
 H        -5.7424391159        8.0238504293        3.1044307850
 H        -7.2264081295        7.2158823488        3.2817867342
 H       -13.1927980924        9.8493815380        3.4434956127
 H       -14.9078188787        9.4229381049        3.5133369553
 H       -14.0266428059        9.5090921444        2.0001055473
 H       -14.3214442419        5.9856657013        4.2599423788
 H       -15.4868091369        7.3053995677        4.2258719605
 H       -14.1806097324        7.3893966656        5.2352463765
 Na       -8.7791993435        1.7577533005       -1.8622556937
