117

 C       -15.4254392382        7.5081395534        0.9017742820
 C       -14.0823056359        7.2181414890        1.4927748438
 O       -13.2272477433        6.5797237772        0.9099854080
 C       -13.6802048535        7.7256774798        2.9097549336
 C       -12.1064603066        7.4381081530        3.0517315015
 O       -11.6712620597        6.7662054087        4.0073594665
 C       -11.1633031271        8.2200174852        2.0545518244
 C        -9.7864172574        8.3298513654        2.6509123173
 C        -8.7536591937        8.9975032727        1.6974788573
 O        -9.2943441291        9.6998924581        0.8308872213
 C        -7.2645211651        8.8526142396        1.7875746987
 C        -7.0368892677        7.8091065571        0.5839407140
 O        -7.4528704070        6.7105384592        0.8165607320
 C        -6.5800556822        8.2560069424       -0.7984857172
 C        -6.3123649675        7.1914312736       -1.8368041534
 C        -5.1943387237        6.2140059188       -1.4473132795
 O        -4.4661599213        6.3559837572       -0.4400271297
 C        -5.1087386133        4.8171801943       -2.1390196789
 C        -6.0958583732        3.9246663865       -1.3507657012
 O        -7.0122621719        3.3909794227       -1.9785752309
 C        -5.7522318636        3.4722091988        0.1115645850
 C        -6.9572360502        3.6611803888        1.0811888887
 C        -7.8492031041        2.5189658924        1.1109003904
 O        -7.5225969580        1.4983400092        0.5491809515
 C        -9.0976948196        2.7232311703        1.9805722398
 C       -10.4235945138        2.5802481819        1.0433808852
 O       -10.2886152839        2.3189812139       -0.1452136193
 C       -11.7866056826        2.8811550017        1.6864230749
 C       -12.8679041575        3.0411211823        0.5697286385
 C       -12.8947979548        1.7250368200       -0.1687399874
 O       -12.5993710650        0.6802008234        0.3506073357
 C       -13.2038565465        1.7134431438       -1.7840312782
 C       -11.7908132322        1.4646424674       -2.5102578134
 O       -10.9833282391        2.4189382914       -2.4621010682
 C       -11.3678890302        0.1377572127       -3.1845297775
 C       -11.2342082293       -1.0687204465       -2.1426872422
 C        -9.7630299166       -1.4300469094       -1.8224929010
 O        -8.7960397607       -0.6932974091       -1.9727563342
 C        -9.5441022416       -2.9478453310       -1.3088917021
 C        -9.5098181524       -3.7717876472       -2.6844502602
 O       -10.3234529530       -3.5771499482       -3.5471222798
 C        -8.4474015195       -4.7800582338       -2.8484942438
 C        -8.2516141006       -2.9812387595       -0.5114584051
 C       -10.7662111278       -3.3981660183       -0.3608322454
 C       -14.2315904876        0.5864072202       -2.0679442789
 C       -13.7001229821        3.0735193855       -2.2121534047
 C        -9.1279610705        1.4418509942        2.8690339439
 C        -9.2370771031        4.0240089102        2.7879743862
 C        -5.4748993968        4.9391376996       -3.6066453040
 C        -3.7537731439        4.1533864085       -2.0106074451
 C        -6.5982013994       10.2490593704        1.5485279814
 C        -6.8114755711        8.2095791150        3.0996259899
 C       -13.8601060091        9.2828544580        3.0737933321
 C       -14.4483344607        6.9820407998        3.9500372078
 H       -15.5151579516        8.5653975970        0.7096195387
 H       -16.1900268309        7.1544796972        1.5934961473
 H       -15.7229837122        6.9533599406        0.0540028436
 H       -11.6419036795        9.1235133604        1.7254340286
 H       -11.0686422071        7.4954262195        1.1892164192
 H        -9.4484256220        7.2534031138        2.8794218365
 H        -9.7829767104        8.9463165167        3.5567679147
 H        -5.6703395367        8.8701323528       -0.6642926181
 H        -7.3429786770        8.9839601796       -1.1713041045
 H        -5.9656681409        7.7227707257       -2.7338407909
 H        -7.1134908648        6.5961472460       -2.1976264818
 H        -4.8436795503        3.9286049634        0.4274963491
 H        -5.5163667569        2.3874433254        0.0725310852
 H        -7.5872404312        4.5360395799        0.8715299084
 H        -6.5019280877        3.8764102203        2.0830235502
 H       -11.7089354173        3.8630443736        2.2172058230
 H       -12.0730804265        2.0452016829        2.3795542900
 H       -12.6318904923        3.9389611874       -0.0184174624
 H       -13.8345406339        3.2484699661        1.0038474796
 H       -10.4089254598        0.2633654499       -3.7039233472
 H       -12.1628095157       -0.1919171514       -3.8593315565
 H       -11.8697680219       -1.9917213375       -2.4700990325
 H       -11.6664635180       -0.7074450279       -1.1983308292
 H        -7.4577627757       -4.4140831945       -2.6003566603
 H        -8.4494835356       -5.1087975350       -3.8608921604
 H        -8.5358677974       -5.6875129515       -2.2388280122
 H        -7.3054851935       -3.0259979748       -1.1031690444
 H        -8.0753132358       -3.8467386505        0.1911188749
 H        -8.2535312025       -2.1250678334        0.1490186310
 H       -11.6244626950       -3.5948564942       -0.9602580461
 H       -10.9070027394       -2.6115892803        0.4190501846
 H       -10.5035418013       -4.3214335794        0.0988538394
 H       -15.1844071014        0.9838711126       -1.6319817938
 H       -13.8708276414       -0.2864698451       -1.4903876810
 H       -14.4230550529        0.2918279599       -3.0750663477
 H       -14.1884966584        3.0211236472       -3.1935815091
 H       -12.9021054164        3.7698406055       -2.3469072653
 H       -14.5020582674        3.4580495683       -1.5586996679
 H        -9.3922168801        0.5894387149        2.2592822899
 H        -9.9361121214        1.4930214739        3.5783974278
 H        -8.2466433723        1.0817035961        3.3072388018
 H        -8.4907565942        4.0377757332        3.5414499019
 H       -10.1542104385        4.0329234096        3.2738827485
 H        -9.1834278866        4.8791687496        2.0976814477
 H        -5.2960428561        4.0433537225       -4.1919087876
 H        -4.7683357631        5.6008595293       -4.1525636015
 H        -6.4868835886        5.3776598528       -3.7562996729
 H        -3.3479382808        4.0686195720       -1.0442277622
 H        -3.0227061686        4.7246656889       -2.6498407063
 H        -3.8151457130        3.1845561270       -2.4270473398
 H        -7.0274099712       10.9934785356        2.2077871805
 H        -6.6653416144       10.6294753091        0.5101169372
 H        -5.5079845085       10.1695273542        1.8010977242
 H        -7.1603361395        8.6709095046        4.0152634599
 H        -5.7444176242        8.3464309809        3.1374068811
 H        -6.9602686871        7.1062878660        3.1460601504
 H       -13.8525976032        9.6151829924        4.1166831255
 H       -14.8755999392        9.5178478065        2.7567889693
 H       -13.0976845506        9.8824312103        2.6057069569
 H       -14.0520973243        5.9391838543        3.9049136301
 H       -15.5457825606        7.0068492232        3.9211403648
 H       -14.2647320812        7.4027565177        4.9592944486
 Na       -8.7789078196        1.6593568113       -1.6254164738
