117

 C       -14.8937872389        8.0465223069        0.2751285587
 C       -13.8223038823        7.2483377778        1.0472031288
 O       -13.2552668251        6.2983221896        0.5188345739
 C       -13.5702792894        7.6953477058        2.5295164355
 C       -12.0265307060        7.6041974794        2.9088874019
 O       -11.6244540174        6.9242374831        3.7780431818
 C       -11.0892724380        8.5587942986        2.1441008084
 C        -9.6538528199        8.1811034682        2.2264837008
 C        -8.6726469774        9.2666731215        1.7355847993
 O        -9.0458981414       10.2712843504        1.2854679332
 C        -7.0542569118        8.9480306801        1.7408649907
 C        -6.9326573271        7.9223876264        0.5721728615
 O        -7.2178709714        6.7217333378        0.6717874898
 C        -6.5785916383        8.4524977812       -0.8648810170
 C        -6.4730253627        7.2444409107       -1.9046819730
 C        -5.2888572559        6.1907853916       -1.4750098358
 O        -4.4462379590        6.5887495563       -0.7453978367
 C        -5.2445097002        4.7805865044       -2.1705753980
 C        -6.1132090283        3.7278523142       -1.3708964551
 O        -7.1077354243        3.3131230411       -1.9663133820
 C        -5.6404223189        3.3191308831        0.0677864957
 C        -6.5911970221        3.5582926924        1.2249476481
 C        -7.7505233103        2.4905248700        1.3396784846
 O        -7.8381563853        1.4815315073        0.6983431201
 C        -9.1308783162        2.7289081580        2.1890567675
 C       -10.3729253419        2.5442395137        1.2153745868
 O       -10.2772354992        2.4023698146       -0.0087169154
 C       -11.7588072236        2.6637077886        1.7444643171
 C       -12.8418592883        2.8342347738        0.5537921837
 C       -13.0931634674        1.5532440496       -0.2751955133
 O       -13.1587305753        0.4606383121        0.2842296538
 C       -13.1800149358        1.6251182286       -1.9066448674
 C       -11.7434488271        1.3541083418       -2.4835002302
 O       -10.9368179785        2.2295974102       -2.5634334958
 C       -11.3240668349       -0.0573017671       -2.9866096517
 C       -11.2980699181       -1.1527938785       -1.7900491857
 C        -9.9776507421       -1.4890861931       -1.2410300541
 O        -9.1388519493       -0.6151956877       -1.1503521019
 C        -9.5956934121       -2.9835444399       -1.0348408545
 C        -9.8091185107       -3.8138388601       -2.4483202996
 O       -10.7991262640       -3.5968003122       -3.1146690016
 C        -8.8088607508       -4.9972127224       -2.7050953778
 C        -8.1387636408       -3.0319914352       -0.4983690817
 C       -10.5617220750       -3.6376465424       -0.0497790703
 C       -14.2452698304        0.5830712543       -2.4176327183
 C       -13.6882206936        3.0269311189       -2.2934773015
 C        -9.1027020337        1.5783973863        3.1603278078
 C        -9.2711811476        4.1539221398        2.9557532320
 C        -5.5844433946        4.7791801078       -3.6727184816
 C        -3.7639485164        4.3578018155       -2.2281944432
 C        -6.3025857228       10.2886183847        1.4287626913
 C        -6.4391988717        8.3093202606        3.0626755527
 C       -14.0440647779        9.1284167205        2.9564759726
 C       -14.3275333254        6.7237710399        3.4526792452
 H       -14.3841062147        8.6475067372       -0.4600071429
 H       -15.5333405200        8.6663421692        0.8736216897
 H       -15.6168764091        7.3581782350       -0.2482322650
 H       -11.3352771805        9.5799931980        2.5752962002
 H       -11.4576218403        8.5511943816        1.1068411490
 H        -9.5881934394        7.3650178946        1.5135535664
 H        -9.1247352632        7.8828890730        3.1688488179
 H        -5.6233747230        9.0443049266       -0.8256095806
 H        -7.4077886997        9.1117815422       -1.1574451459
 H        -6.1597478923        7.6020269166       -2.8612205380
 H        -7.4396234724        6.7502150192       -2.0278547552
 H        -4.7063181199        3.9104923701        0.1260514505
 H        -5.3178675148        2.2914101913        0.0206281850
 H        -7.0368706924        4.5551863072        1.1943073102
 H        -5.9878985951        3.5868498844        2.1976718448
 H       -11.7778323140        3.6087575557        2.3079529204
 H       -12.0547421404        1.7670033797        2.3435633905
 H       -12.5975361209        3.7519097174        0.0252576607
 H       -13.8237469979        3.1174510615        0.9429592520
 H       -10.3272628748       -0.0812683523       -3.3940849835
 H       -12.0994255203       -0.3579082422       -3.7062812990
 H       -11.7706145803       -2.0735813730       -2.1470714113
 H       -11.8782075523       -0.6849033761       -0.9415874434
 H        -8.0207003988       -4.7399259015       -3.4495433956
 H        -9.2540702334       -5.8923763986       -3.1435034469
 H        -8.2942998769       -5.3176660100       -1.8403713475
 H        -7.4660714641       -2.4434692646       -1.1506510277
 H        -7.7883957588       -4.0671479261       -0.4064389117
 H        -7.9061971452       -2.5595954028        0.5272234713
 H       -11.5704789552       -3.7259262942       -0.5175834683
 H       -10.6004753848       -3.1532371508        0.9033962460
 H       -10.1731542817       -4.6616108874        0.0801335204
 H       -15.1266138062        0.9547284899       -1.9472584663
 H       -14.0833296502       -0.4006660173       -1.9837798886
 H       -14.3487459616        0.6036067745       -3.5550709620
 H       -13.9419568973        2.9892050740       -3.3342288351
 H       -12.9071968168        3.7843401058       -2.1476941096
 H       -14.5547988513        3.4071387582       -1.7529756582
 H        -9.0803089761        0.5810202692        2.7182018002
 H        -9.9024417068        1.6101209285        3.8699624972
 H        -8.1993829506        1.5688217949        3.7972189464
 H        -8.4850544313        4.2922658738        3.6290202214
 H       -10.2667938869        4.2010950483        3.4078948941
 H        -9.1298629470        4.9203097771        2.2944408966
 H        -5.1794694837        3.9020651334       -4.2524138966
 H        -5.1051452849        5.6459044888       -4.1117913905
 H        -6.6595096600        4.7223649774       -3.8143451482
 H        -3.3149935712        4.3391480405       -1.2405029468
 H        -3.1566036979        5.0279714483       -2.7343260540
 H        -3.6976187105        3.3808403994       -2.7072214316
 H        -6.0294673967       10.8125483351        2.3967355118
 H        -6.9839983966       10.8803980014        0.7532336636
 H        -5.3729610063       10.1906826295        0.8681337515
 H        -6.9487485102        8.6411833625        3.9715825801
 H        -5.3556288715        8.5857915700        3.1419769737
 H        -6.6014662185        7.2301387089        3.0224897949
 H       -13.4932248244        9.4815856193        3.8354189302
 H       -15.1099086695        9.0931117968        3.1908712291
 H       -13.9149092837        9.8713580212        2.1222972434
 H       -14.0434028263        5.6489033030        3.3443810610
 H       -15.4189193455        6.7141151855        3.2908325343
 H       -14.0341385956        7.0696108246        4.4593297725
 Na       -8.9521759870        1.8118794231       -1.6942945842
