117

 C       -14.8012532161        8.1248749760        0.1534578223
 C       -13.7596026594        7.3223454233        1.0056298027
 O       -13.2940097911        6.2811950421        0.5488270488
 C       -13.4996109842        7.6558126968        2.5390436471
 C       -11.9782618855        7.6235373226        2.8587056120
 O       -11.4825893354        6.8815708698        3.7026555411
 C       -11.0297127561        8.6506377212        2.0531357168
 C        -9.6539540795        8.1826085149        2.1767838227
 C        -8.5985246186        9.3030590618        1.7799464251
 O        -8.9737557895       10.3989258067        1.3996148316
 C        -7.0953764599        8.9405811323        1.6293812281
 C        -6.9917429906        7.9172822548        0.5248584287
 O        -7.2324708411        6.7461628368        0.7825524290
 C        -6.5939931521        8.3857271732       -0.8830595007
 C        -6.4370631297        7.2606887714       -1.8711171405
 C        -5.3380816704        6.2659908154       -1.5026512745
 O        -4.3913723051        6.5564640309       -0.7992026789
 C        -5.3269902517        4.7874168523       -2.1840118009
 C        -6.2090452978        3.7629316702       -1.4469445619
 O        -7.1515140271        3.1878866417       -1.9611282296
 C        -5.7206516536        3.3279665686       -0.0047829271
 C        -6.7207122018        3.4854320385        1.1512796760
 C        -7.8840891125        2.5357817661        1.1993801543
 O        -7.7138282190        1.4046696403        0.6672689460
 C        -9.1249142712        2.7615101843        2.1498119423
 C       -10.3779589310        2.6304761058        1.2480371102
 O       -10.1989438700        2.4128937558        0.0630131264
 C       -11.8430528378        2.5565387826        1.7424263357
 C       -12.7308723558        2.8036887890        0.5489031100
 C       -12.9734448061        1.5476293994       -0.2867351566
 O       -13.1560662614        0.4572892774        0.2151357211
 C       -13.1748545649        1.6495466674       -1.8651279196
 C       -11.7558410643        1.3122691224       -2.4504109824
 O       -10.9948352119        2.2432227625       -2.6022850198
 C       -11.3892438969       -0.0776139709       -2.8587041588
 C       -11.4215337028       -1.1667806027       -1.7359663482
 C        -9.9625643838       -1.4928721156       -1.2931016414
 O        -9.0900754439       -0.6067869308       -1.1447325347
 C        -9.6045326950       -3.0166049382       -1.0042052639
 C        -9.8563335391       -3.8417446965       -2.2976327987
 O       -10.7417413787       -3.5500093300       -3.0671922626
 C        -8.9007032998       -4.8586777100       -2.6575620598
 C        -8.1255446186       -3.0978758274       -0.5832097206
 C       -10.5850171889       -3.6203452142        0.1570975614
 C       -14.2640793724        0.6282968602       -2.2362599169
 C       -13.5527938181        3.0384250382       -2.4022005984
 C        -9.1407139019        1.6528159279        3.2428438393
 C        -9.2161134064        4.1107290933        2.8684674554
 C        -5.7526121345        4.8132386641       -3.6042213899
 C        -3.8050602624        4.2747286866       -1.9804683084
 C        -6.3777733581       10.3118232036        1.4169223946
 C        -6.4616069338        8.2995684735        2.9393338175
 C       -14.0283618911        9.0928933450        2.8322458860
 C       -14.2938871882        6.6659512215        3.3323755123
 H       -14.2669385598        8.8222734777       -0.4823949706
 H       -15.5155025347        8.6883346574        0.7440620634
 H       -15.3192066756        7.4654787331       -0.4622122193
 H       -11.1219887592        9.6144712833        2.7187756913
 H       -11.5139222745        8.8819241467        1.0509759195
 H        -9.5345458118        7.3743193013        1.4696082573
 H        -9.3595185257        7.8135490866        3.2136374948
 H        -5.6792120622        8.9774946627       -0.8037131810
 H        -7.4292157980        9.0166365133       -1.2185138011
 H        -6.1145312420        7.6383515722       -2.8348659149
 H        -7.3921489466        6.7148127315       -1.9793518495
 H        -4.8484824121        3.9969747320        0.1199574728
 H        -5.3063294946        2.3074390348       -0.0413726653
 H        -7.0335551013        4.5706446721        1.3144176976
 H        -6.1992682938        3.2430362252        2.0871963625
 H       -12.1139662522        3.2334359043        2.5189414318
 H       -11.9979758927        1.5356770160        1.9977198732
 H       -12.3035879118        3.6577531438        0.0266756864
 H       -13.7259960804        3.2256521633        0.7658708561
 H       -10.3181621651       -0.1485646094       -3.1293167736
 H       -12.0246360796       -0.3073902781       -3.7210501669
 H       -11.8270748205       -2.0330363496       -2.1013440557
 H       -11.9584137500       -0.7619315366       -0.8629403640
 H        -8.2199989976       -4.4469717582       -3.3252767392
 H        -9.3706305917       -5.6686249810       -3.2811852941
 H        -8.3560950152       -5.3297558212       -1.8635692753
 H        -7.3744771594       -2.9522435784       -1.3710517431
 H        -8.0066434115       -4.0251149702       -0.0790672492
 H        -7.8334418708       -2.3426323974        0.1144895071
 H       -11.5930216565       -3.6854046981       -0.2388587919
 H       -10.5834381181       -3.0086760746        1.0385393450
 H       -10.2141987258       -4.6221518485        0.4317720046
 H       -15.1996163353        1.0236965533       -1.8568180440
 H       -14.1077373354       -0.3115363093       -1.7088636245
 H       -14.2798225865        0.5687980303       -3.3250626916
 H       -13.9649909403        2.9597125731       -3.4197522530
 H       -12.6275100213        3.6491215004       -2.4134917619
 H       -14.2044560878        3.6296413848       -1.7917000790
 H        -9.1851607351        0.6825015676        2.8274128511
 H        -9.8807457526        1.7135291149        4.0035920651
 H        -8.2260225763        1.6797680171        3.8143265042
 H        -8.4123924513        4.3037838160        3.6178675783
 H       -10.1516467284        3.9766458502        3.3203830852
 H        -9.2265531614        4.9519577768        2.2145993902
 H        -5.6436435354        3.8760872272       -4.1968118917
 H        -5.1320112322        5.6428025622       -4.1112546061
 H        -6.8625676896        4.9872811801       -3.6346898403
 H        -3.5430822036        4.2833969540       -0.8845295196
 H        -3.0608415254        4.8726896159       -2.4182158064
 H        -3.7115525725        3.2887384814       -2.3586509465
 H        -6.5688138450       10.9649308534        2.2771653995
 H        -6.5869192715       10.7395160793        0.4858158101
 H        -5.2911732995       10.1461399925        1.4396263945
 H        -7.0079245300        8.5935084110        3.8466546955
 H        -5.4386822287        8.6189504625        3.0027251884
 H        -6.5299981778        7.2630190332        2.8747147942
 H       -13.7852226010        9.4135223519        3.8534608996
 H       -15.1273962962        9.1144288705        2.6632765230
 H       -13.6483805431        9.8015661116        2.0945569730
 H       -13.8831319678        5.6634095216        3.2434288946
 H       -15.2936675514        6.5376857530        2.8535552049
 H       -14.2988413934        6.9361093225        4.4083657050
 Na       -8.9231477849        1.7560828012       -1.6287901115
