117

 C       -14.6089161459        8.1528299591        0.0729437968
 C       -13.7918122664        7.2915001704        0.9630677056
 O       -13.2609618236        6.2844605337        0.5619277492
 C       -13.5396932894        7.6694812113        2.4342868082
 C       -11.9640521986        7.6953004177        2.8021144848
 O       -11.4599322718        6.8368986534        3.5054282941
 C       -10.9751839848        8.6902481905        2.0879129493
 C        -9.5208819589        8.2094413760        2.1544134823
 C        -8.5509690368        9.3483007344        1.6986834688
 O        -9.0262897684       10.5034656944        1.5875157744
 C        -7.0329771427        8.9662079024        1.6245774764
 C        -6.9497429483        7.9013378631        0.5033826923
 O        -7.2625062022        6.7681071070        0.7672120459
 C        -6.5869859864        8.2881437109       -0.9380751116
 C        -6.4591513664        7.1631484690       -1.9051822777
 C        -5.3142970750        6.2320839632       -1.5260053939
 O        -4.3949367011        6.5959760221       -0.7850160746
 C        -5.3661023905        4.7486368041       -2.1257264469
 C        -6.2810027253        3.7668970122       -1.3710784761
 O        -7.1491310085        3.2063594585       -1.9636276685
 C        -5.8564694645        3.3199469423        0.0739452266
 C        -6.8828702316        3.5668112975        1.1659196200
 C        -7.8948254173        2.4242953860        1.2304226415
 O        -7.7059096155        1.3853421636        0.6102175527
 C        -9.1505173041        2.7460611773        2.1720391319
 C       -10.3725605723        2.4536277199        1.2242587292
 O       -10.2571498117        2.4973598383        0.0458803167
 C       -11.8349318685        2.4749856454        1.7417324308
 C       -12.7424970756        2.8127642788        0.5552100171
 C       -13.0173941480        1.6084413909       -0.2962709588
 O       -13.0472376647        0.5249136253        0.2543054593
 C       -13.1794309386        1.7054291154       -1.8688444569
 C       -11.7571488770        1.2815299228       -2.4521311843
 O       -10.9710867785        2.2237691763       -2.6566033527
 C       -11.4524065054       -0.1350061601       -2.7840375799
 C       -11.4279217976       -1.1340174988       -1.6474877711
 C        -9.9863043051       -1.5161253921       -1.2187346411
 O        -9.0923778176       -0.6863422758       -1.2349877500
 C        -9.6243093505       -2.9916965550       -0.8916029785
 C        -9.8634724178       -3.8218258652       -2.3015046369
 O       -10.8049710513       -3.4977649077       -2.9884796648
 C        -8.8676466855       -4.9251746989       -2.6826510516
 C        -8.1567719912       -3.1114114237       -0.5277941034
 C       -10.5144124377       -3.4768338129        0.2481116396
 C       -14.3164281674        0.6451257803       -2.1655510313
 C       -13.4933237767        3.1146121390       -2.4210239559
 C        -9.1645011698        1.6780351721        3.2987710532
 C        -9.0808836564        4.1683526512        2.7707945280
 C        -5.8769203540        4.9049465997       -3.6148643568
 C        -3.8864339670        4.2143180757       -1.9493387122
 C        -6.3426866943       10.3253308419        1.3466981390
 C        -6.6000369183        8.3088736626        2.9416730454
 C       -13.9884033911        9.1632462962        2.7538437286
 C       -14.2542004435        6.5505644284        3.2847980921
 H       -14.0157929199        9.0060428392       -0.2322546127
 H       -15.4532230243        8.5666600007        0.6244487758
 H       -14.8635029079        7.6186531922       -0.8270705055
 H       -11.0408902767        9.6678145645        2.5484268851
 H       -11.5306781545        8.7784432692        1.1260981698
 H        -9.3527815318        7.3037928253        1.5193151405
 H        -9.2037809238        8.0105902762        3.1559196417
 H        -5.6037904149        8.6902151901       -0.8526104857
 H        -7.2972264235        9.0461881319       -1.2809944641
 H        -6.2079360149        7.5479330533       -2.9362710508
 H        -7.3524247335        6.5342569364       -1.9123585980
 H        -4.9008804512        3.7566658550        0.1666157460
 H        -5.6986702239        2.1968952251        0.0407086776
 H        -7.4409661331        4.5088729492        1.0154814000
 H        -6.4176106981        3.6831398373        2.1212486741
 H       -12.0500119690        3.1802970740        2.5106896623
 H       -12.1212902092        1.5006537275        2.0030338532
 H       -12.2788830349        3.6457618964        0.0123440673
 H       -13.6744573830        3.3135009296        0.8394858326
 H       -10.4749993917       -0.3170886435       -3.2850407878
 H       -12.2559384345       -0.4118078220       -3.4894039113
 H       -11.9210656285       -2.0391911415       -2.0084654142
 H       -11.9332667066       -0.7145234837       -0.8473363520
 H        -7.9795013117       -4.6196874203       -3.2061501204
 H        -9.3332878192       -5.5492446158       -3.3981243354
 H        -8.5788503434       -5.5806409996       -1.8326509956
 H        -7.5586074664       -3.2593572884       -1.3877347729
 H        -8.0330100182       -3.8846230514        0.2099585238
 H        -7.7872844111       -2.2326286942       -0.1595463145
 H       -11.5317855395       -3.4040629261       -0.0407793670
 H       -10.3663652939       -2.7838472922        1.1077688331
 H       -10.2035608263       -4.4479458434        0.5578859452
 H       -15.3281153861        0.9444858005       -1.8206791215
 H       -14.0432116496       -0.2357184867       -1.5805999516
 H       -14.2793915952        0.5274463260       -3.1922907937
 H       -13.9715875877        3.0662768598       -3.4201102333
 H       -12.6605988770        3.7939137585       -2.4192934029
 H       -14.1758930796        3.6124968364       -1.7177388546
 H        -9.2017619054        0.6854597390        2.8592420169
 H        -9.9747587423        1.7069201833        4.0177434699
 H        -8.3339318892        1.7741501948        3.9436307566
 H        -8.1080122624        4.2577457382        3.3129364539
 H        -9.9039206586        4.2779442863        3.4657314396
 H        -9.1058584066        4.9892000179        1.9442494109
 H        -6.0919002325        3.9244375623       -4.0712901857
 H        -5.1344489702        5.4732250505       -4.2440743051
 H        -6.9238868530        5.3337187094       -3.6370771499
 H        -3.4747895741        4.4543930743       -0.9966222091
 H        -3.2253619794        4.7474580899       -2.7445282738
 H        -3.8135935192        3.1531168042       -2.1540071195
 H        -6.7868852077       11.1396739262        1.8088628920
 H        -6.2741132003       10.4714669025        0.3028177696
 H        -5.3329136845       10.2670840901        1.6969197553
 H        -7.0395277093        8.7374566297        3.8071435507
 H        -5.5611319640        8.3424404000        2.9553897129
 H        -6.9096959942        7.2754595252        2.8852904899
 H       -13.9323896036        9.2510752402        3.8418028283
 H       -15.0028745309        9.3520556549        2.3860061206
 H       -13.4361157234        9.9258224393        2.2522202285
 H       -13.6714769652        5.6421109356        3.1408777959
 H       -15.1513162651        6.2928390603        2.7477431026
 H       -14.3467472038        6.6819277764        4.3598028839
 Na       -8.8126794425        1.6059919698       -1.5485151725
