117

 C       -14.4125463506        8.2352210210       -0.0590391002
 C       -13.6307863746        7.2848077778        0.8747543080
 O       -13.2135867157        6.2054798957        0.5265558380
 C       -13.4312784726        7.7102682607        2.3864817497
 C       -11.9145495086        7.5791438151        2.6169098352
 O       -11.5260719832        6.7342032535        3.3573886867
 C       -11.0387548041        8.6930500178        2.0396393900
 C        -9.5803637722        8.2473446572        2.1986693549
 C        -8.6441195162        9.4198963467        1.7938580620
 O        -8.9719376073       10.5411913667        1.7064574613
 C        -7.0486711499        8.9749358976        1.5916038200
 C        -6.9329594907        7.9185703242        0.4687959786
 O        -7.2896679957        6.7634182521        0.6714593232
 C        -6.5045531620        8.3646025196       -0.9775359781
 C        -6.5475756524        7.1119415839       -1.8511176653
 C        -5.3514306415        6.1354168248       -1.4661277822
 O        -4.4732186439        6.5835941168       -0.8099816008
 C        -5.3082934957        4.7582280268       -2.0910780810
 C        -6.2441723827        3.7087981477       -1.3269637284
 O        -7.2283883902        3.2829159576       -1.9282106495
 C        -5.8666674865        3.3113327209        0.1003413910
 C        -6.9654578870        3.6355669520        1.0301232113
 C        -7.8706394794        2.4226948097        1.3455450608
 O        -7.8007951297        1.4246076074        0.7074657028
 C        -9.1348778250        2.6289945089        2.2088674473
 C       -10.4200843151        2.5543227154        1.1837219935
 O       -10.2772207740        2.5092185060       -0.0427922189
 C       -11.7844614107        2.5646308957        1.7969141122
 C       -12.8503819124        2.9450392295        0.6583589843
 C       -13.0059560384        1.6983072513       -0.2674675091
 O       -12.9674996038        0.6027540325        0.2889511256
 C       -13.1808914898        1.7333151270       -1.8312240643
 C       -11.7940397369        1.3026979394       -2.4723969626
 O       -10.8464236026        2.0696996359       -2.6639134611
 C       -11.5694462133       -0.2023589667       -2.8010453612
 C       -11.3770019503       -1.1485270000       -1.5237850508
 C        -9.9390579549       -1.5141931372       -1.2786924490
 O        -9.0622364891       -0.7010322955       -1.3390338770
 C        -9.5835913401       -2.9796446621       -0.8653463743
 C        -9.9065178194       -3.8375694828       -2.2396675575
 O       -10.8599498062       -3.5542582962       -2.9545902657
 C        -8.9728412993       -4.9561059303       -2.6344753049
 C        -8.0633545139       -3.0882268356       -0.3937535601
 C       -10.5191516699       -3.4275006968        0.2922920810
 C       -14.3336181892        0.7212294450       -2.2465823382
 C       -13.5784163139        3.1257783918       -2.2992355349
 C        -9.1744675498        1.6304292033        3.3810891991
 C        -9.1522030224        4.0739073579        2.6714234048
 C        -5.8178142275        4.8596891476       -3.5542279305
 C        -3.9652778815        4.1603120989       -2.1789338449
 C        -6.1721436092       10.3141217958        1.2558120102
 C        -6.7238683036        8.4314738911        2.9593798151
 C       -14.0400969182        9.1435755141        2.7917248939
 C       -14.1307302544        6.6502789195        3.2716953048
 H       -14.1140353650        9.2830869638       -0.0285599332
 H       -15.4417929786        8.2627618516        0.3087856411
 H       -14.2838171048        7.8675296026       -1.1492948940
 H       -11.2489130440        9.5578034056        2.5405626599
 H       -11.4829003197        8.8225018972        1.1218172327
 H        -9.3530172348        7.4471974519        1.4754215083
 H        -9.3501452648        7.9078227063        3.1671520229
 H        -5.4974099948        8.7774419560       -0.9857215502
 H        -7.2644875163        9.0790648640       -1.2724511414
 H        -6.4084600137        7.3255844522       -2.9367131299
 H        -7.4897498233        6.5997320469       -1.6556881507
 H        -4.9046863064        3.7801228816        0.2172423923
 H        -5.7517738081        2.2215475424        0.1543976054
 H        -7.6291310904        4.3316973625        0.6366847186
 H        -6.5352968682        4.1277532511        1.9045625242
 H       -11.9049274896        3.2393200505        2.6564629843
 H       -12.0177994377        1.5051097183        2.0415442775
 H       -12.5713963996        3.8845551738        0.1767939114
 H       -13.8130976223        3.2379780556        1.0730106846
 H       -10.6468749187       -0.2964790281       -3.3579820635
 H       -12.3585451969       -0.6582797052       -3.4284899917
 H       -12.0230906493       -2.0751417524       -1.6766681594
 H       -11.7153740060       -0.5690343259       -0.6853218393
 H        -7.9419423131       -4.5745425119       -2.9452401522
 H        -9.2977441737       -5.4173502389       -3.5315436824
 H        -8.8358576471       -5.7159184989       -1.8839778267
 H        -7.3907717837       -3.1642647629       -1.2108918275
 H        -7.9308565547       -3.8435827321        0.3705575501
 H        -7.8454600505       -2.0898262619        0.0560955724
 H       -11.5551508765       -3.1491056720        0.1115813339
 H       -10.1951457186       -2.8350384982        1.1519740397
 H       -10.3267541439       -4.4465106986        0.5378522602
 H       -15.2963269279        1.0751494605       -1.9086565451
 H       -14.1449133462       -0.1986023753       -1.7140399960
 H       -14.2970347684        0.7292770260       -3.3535404479
 H       -13.8757961234        3.0654008527       -3.3327085345
 H       -12.8463737202        3.9035876704       -2.1581116392
 H       -14.4349868531        3.5030046961       -1.6931384749
 H        -9.1981059815        0.5350403454        3.1911819904
 H       -10.0919526128        1.8019236592        3.9557503361
 H        -8.4719699456        1.9505290049        4.1609063924
 H        -8.1673409142        4.2682450719        3.1217342691
 H        -9.9710751876        4.4350722189        3.4345825458
 H        -9.1996516028        4.6379228534        1.7145339297
 H        -6.0217100290        3.7943444294       -3.7615163286
 H        -5.1302051994        5.2894304779       -4.2351920698
 H        -6.8015814495        5.2570982533       -3.6798308288
 H        -3.2736375899        4.5262730420       -1.4444509271
 H        -3.5457980983        4.3775100820       -3.1810104127
 H        -4.0309166511        3.0245465495       -2.1252692048
 H        -6.6244685537       11.2358522140        1.5844098841
 H        -5.9292255447       10.4437699798        0.1893035548
 H        -5.2535825418       10.1790170253        1.7350508499
 H        -6.9098871673        9.1456717499        3.7060249398
 H        -5.6957914797        8.0644237998        2.9264163660
 H        -7.3658923197        7.5542941535        3.1405460929
 H       -14.0341280854        9.2053381409        3.8608298987
 H       -15.0225880993        9.2050038200        2.3918453586
 H       -13.5820102566       10.0001751102        2.2994630128
 H       -13.5838932600        5.7124857591        3.1335115774
 H       -15.0791215606        6.4816035989        2.8295807361
 H       -14.0984502037        6.8202948105        4.3161844072
 Na       -8.7135947706        1.4583514401       -1.4917738512
