117

 C       -14.0127258853        8.2848314331       -0.2756494219
 C       -13.6203911800        7.2621485651        0.7865076317
 O       -13.1755293036        6.1993421759        0.3908186141
 C       -13.4494460541        7.6759441415        2.3695071473
 C       -11.9275645348        7.5514050537        2.4973747029
 O       -11.3738750307        6.5972432549        3.0282919648
 C       -11.0148098225        8.6946645082        1.9808979604
 C        -9.5662149496        8.3906183421        2.1342955839
 C        -8.5459281870        9.5478340159        1.8253670017
 O        -8.8977943461       10.7505932090        1.8009333994
 C        -7.0261815738        9.1309640243        1.6259771704
 C        -6.9905866198        7.9103229646        0.5025604308
 O        -7.4147402107        6.8137040981        0.8031477730
 C        -6.5279237870        8.2631338587       -0.9702688653
 C        -6.4972431049        7.0204703039       -1.8966431957
 C        -5.3957045581        6.0387455248       -1.6394472979
 O        -4.5224981321        6.2871260879       -0.7834967924
 C        -5.3338948043        4.6647708754       -2.3271894654
 C        -6.2483846352        3.6848441319       -1.4847862855
 O        -7.3388303046        3.3680663017       -1.8741959337
 C        -5.8273005710        3.3075456772        0.0068143646
 C        -6.9992913634        3.6599322373        1.0258964035
 C        -7.9326918702        2.4800797178        1.3477684442
 O        -7.7131097092        1.3091212221        0.9768401115
 C        -9.2736679424        2.8221910499        2.1631683385
 C       -10.5079990459        2.6727695853        1.2077093981
 O       -10.3400443572        2.4024647906        0.0713383054
 C       -11.9135366466        2.9118702762        1.8024648987
 C       -12.9819854643        2.9528884302        0.6724140301
 C       -13.0106584884        1.6951374759       -0.1294889868
 O       -12.9245781691        0.5862206664        0.3524051535
 C       -13.1695260857        1.8037368459       -1.7461923593
 C       -11.7957924687        1.2537530794       -2.4129210669
 O       -10.7970995587        1.9531261028       -2.5000294905
 C       -11.6752245624       -0.2044862656       -2.6808087900
 C       -11.2773415537       -1.1384587042       -1.4576564517
 C        -9.8356334525       -1.5440010919       -1.2910240491
 O        -8.8872141171       -0.8216870280       -1.6495745212
 C        -9.5560022145       -2.9529814261       -0.7883748693
 C        -9.9281374114       -3.8782494857       -2.1200967421
 O       -10.9646424723       -3.7016381380       -2.6901370599
 C        -9.0022685740       -5.0607497999       -2.4212684968
 C        -8.1192575407       -3.1054977403       -0.3811125020
 C       -10.5390310891       -3.4762448538        0.2422971744
 C       -14.3631656986        0.8907001743       -2.1485079780
 C       -13.3877362570        3.2530892068       -2.2031266194
 C        -9.3296344773        1.7120374629        3.2265614933
 C        -9.3780793847        4.1805787338        2.8925280760
 C        -5.9512659212        4.6621219960       -3.7708176547
 C        -3.8688192442        4.1338644513       -2.2935622275
 C        -6.1709471044       10.3553514469        1.2931597808
 C        -6.5343386260        8.4692189142        2.9500564968
 C       -14.0232314583        9.1102681838        2.6098056202
 C       -14.2882492911        6.5292900189        3.2379429477
 H       -14.1520390416        9.2987437337        0.1372298876
 H       -15.0036526545        8.1112690448       -0.7191645421
 H       -13.1978393747        8.3361388718       -0.9386882602
 H       -11.4782283509        9.5765814061        2.5394598349
 H       -11.3488966057        8.8708003157        0.8965116316
 H        -9.4106169575        7.6029171818        1.4059797888
 H        -9.2768000594        8.0086556610        3.1472075751
 H        -5.5396502575        8.7534300328       -0.9345905996
 H        -7.3156016860        8.9620209318       -1.3381884599
 H        -6.4266538600        7.3153560989       -2.9292955325
 H        -7.4006447731        6.4267744511       -1.7293582326
 H        -4.9526659687        3.9203504812        0.2229159162
 H        -5.5237659725        2.2555443557        0.0198520800
 H        -7.6376373551        4.5435620040        0.6639631866
 H        -6.5087387878        4.0332365008        1.9263997948
 H       -12.0346893332        3.8869886323        2.2993275582
 H       -12.2486613586        2.0836819727        2.4492483509
 H       -12.7827955547        3.7924559871        0.0054382300
 H       -13.9307216553        3.2590253219        1.1344806535
 H       -11.0160153047       -0.3800975128       -3.5595193449
 H       -12.5761270067       -0.6943760617       -2.9976173137
 H       -11.9010224640       -1.9911635664       -1.5968793044
 H       -11.5918206079       -0.5559868798       -0.5339485279
 H        -7.9702299349       -4.8566698509       -2.3552839983
 H        -9.1338767183       -5.5362665621       -3.4034159418
 H        -9.2021174681       -5.8117909237       -1.6121402734
 H        -7.5071987008       -2.5893171739       -1.2023946909
 H        -7.8524382789       -4.2147803191       -0.3468636894
 H        -7.9137258629       -2.6300511132        0.5852482915
 H       -11.5273269094       -3.3174967722       -0.1540186355
 H       -10.5017150754       -2.9709711694        1.2212090078
 H       -10.3076305355       -4.5422120108        0.4097042942
 H       -15.2790061172        1.3683799663       -1.7111570162
 H       -14.2116162667       -0.0679057127       -1.6193390907
 H       -14.4638238833        0.9061530011       -3.2101141117
 H       -13.3286163303        3.2753651210       -3.2986034498
 H       -12.5972176676        3.9308099334       -1.8808223231
 H       -14.3032881715        3.6988266726       -1.8962324722
 H        -9.1339047791        0.7959636508        2.6830262808
 H       -10.2503000399        1.4585898275        3.7906464757
 H        -8.5829732943        1.9196236905        3.9971269967
 H        -8.5465476159        4.2751076507        3.5664865587
 H       -10.1452885622        4.0837361028        3.5546263220
 H        -9.6238365979        5.0288877764        2.2627827988
 H        -5.6168313559        3.8082955472       -4.3251341947
 H        -5.6551722606        5.6512119424       -4.1313325727
 H        -7.0388021894        4.6859649032       -3.8159404135
 H        -3.3181563246        4.6145990386       -1.4818129128
 H        -3.3601068664        4.2784151257       -3.2637105911
 H        -3.8881716791        3.1130671907       -2.0946919790
 H        -6.3892443347       11.1209148213        2.0788753184
 H        -6.4880489520       10.8795710989        0.3803402867
 H        -5.0494001860       10.0793071453        1.2501301296
 H        -6.5290713154        9.2572873135        3.7687608350
 H        -5.5557193589        7.9884855287        2.7873590553
 H        -7.2361401509        7.6598457171        3.2366018225
 H       -13.8149174610        9.4000578582        3.6407522261
 H       -15.1166477496        9.0856745069        2.4547861233
 H       -13.6441782491        9.7978264313        1.8847145750
 H       -14.1492028007        5.5256382526        2.8493341939
 H       -15.3442045230        6.8524925710        3.3349005772
 H       -13.7823571372        6.4262449555        4.2144902968
 Na       -8.6431799565        1.5206867566       -1.4481019778
