117

 C       -13.7828793929        8.3185471812       -0.4759403863
 C       -13.5301913841        7.2315554305        0.5834243833
 O       -13.3738053463        6.0488246854        0.2903001098
 C       -13.4074465955        7.7201125363        2.2125179160
 C       -11.9003289894        7.6018586688        2.4222781819
 O       -11.3858403815        6.5551544196        2.8004540277
 C       -10.9467478734        8.8355976337        2.1021475739
 C        -9.4988300570        8.3994999661        2.2444386759
 C        -8.5641224384        9.4895360896        1.8352183980
 O        -8.8114542607       10.6538202488        1.7497655306
 C        -7.0673345599        9.0949810927        1.5503033175
 C        -7.0693070425        7.9480393686        0.5106728727
 O        -7.4676923938        6.8288381558        0.8713537016
 C        -6.4715747117        8.2374918225       -0.9093252095
 C        -6.5311236552        7.0353696455       -1.8112608149
 C        -5.4062704923        6.0004721483       -1.5028903984
 O        -4.6095825142        6.1973370920       -0.6634394246
 C        -5.4137897474        4.5935975915       -2.3748112737
 C        -6.3821920323        3.6114014934       -1.5423979144
 O        -7.5002406212        3.2571662268       -2.0019099007
 C        -6.0204266177        3.4100858113       -0.0268006908
 C        -7.0115517064        3.7840205731        1.0968296622
 C        -7.9960211628        2.6252570208        1.3274201149
 O        -7.6734975103        1.5365050725        0.9311281743
 C        -9.3116913548        2.8733561339        2.1757537977
 C       -10.6043967503        2.7504675263        1.3634037777
 O       -10.4513754736        2.2010597586        0.2426595102
 C       -11.9328127612        3.1887726439        1.8542672304
 C       -13.0389070790        3.1161413853        0.7665206442
 C       -12.9537724751        1.7955622778       -0.1072477739
 O       -12.9823844302        0.7116304712        0.4657032536
 C       -13.0811583057        1.8808881645       -1.7076124612
 C       -11.7410028620        1.2295343119       -2.3001182328
 O       -10.7946103235        1.9809797620       -2.4071533278
 C       -11.5385000711       -0.2242494761       -2.6064190458
 C       -11.2132746312       -1.1860488459       -1.4165738054
 C        -9.8303727695       -1.6392916138       -1.3236580512
 O        -8.9862285831       -0.8770225850       -1.7236328402
 C        -9.5369025476       -3.0311961148       -0.8764120606
 C        -9.8976034838       -4.1006841211       -2.0651184164
 O       -10.9807003040       -3.9127479711       -2.5617498832
 C        -8.9665063735       -5.2910595301       -2.3726102030
 C        -8.0926840886       -3.1528907480       -0.3207363094
 C       -10.4628116801       -3.3659134578        0.3661261961
 C       -14.3633660958        1.1058742332       -2.0215280918
 C       -13.1594359943        3.2495704414       -2.3370280627
 C        -9.5128785235        1.7106422379        3.1400942741
 C        -9.1180140784        4.2335305607        3.0110601989
 C        -5.8984161984        4.6887162810       -3.8717834624
 C        -3.9476156929        3.9591663287       -2.4372209049
 C        -6.2307261705       10.3142303757        1.1206671397
 C        -6.3529075752        8.4802131125        2.8804880192
 C       -13.9869592755        9.0783920159        2.5953087277
 C       -14.0812133331        6.5643031393        2.9121882129
 H       -14.4936790974        9.0610144497       -0.1982670240
 H       -14.3052050973        7.8822290740       -1.2793924685
 H       -12.8135742116        8.7586484840       -0.7251905055
 H       -11.2580435611        9.5997191428        2.8015039455
 H       -11.1909064182        9.2050372369        1.1309536835
 H        -9.2486708851        7.4515120970        1.7073560173
 H        -9.2631424903        8.2563710842        3.3000722461
 H        -5.4458603214        8.5560802205       -0.7489600433
 H        -7.0431387820        8.9922770935       -1.4130396221
 H        -6.5150315470        7.4261972285       -2.8571758142
 H        -7.4884986673        6.5140713412       -1.6503900575
 H        -5.0052037742        3.8397810023        0.1565846083
 H        -5.9125517233        2.3075482901       -0.0653520221
 H        -7.4683204131        4.7189114468        0.9873481881
 H        -6.3280471505        3.9002896805        1.9668648022
 H       -11.8393591202        4.2248955912        2.1036310127
 H       -12.2519899983        2.6499263989        2.7135074766
 H       -12.9912546232        4.0454513025        0.2076039620
 H       -14.0204146640        3.1453817719        1.2711524058
 H       -10.7034338671       -0.2434025317       -3.2860459862
 H       -12.3001685015       -0.7960394761       -3.1731224610
 H       -11.8806282936       -2.0366339619       -1.5903641792
 H       -11.4559243646       -0.7329927645       -0.4935133714
 H        -7.9787945785       -4.9711663849       -2.7641801354
 H        -9.4070065104       -5.9331024394       -3.1492117922
 H        -8.7556385681       -5.8759248367       -1.5326035457
 H        -7.4199592385       -2.7403726595       -1.0052894054
 H        -7.9197608819       -4.1560614622       -0.3153042367
 H        -8.0645894917       -2.7337637887        0.6826427656
 H       -11.4907136733       -3.6566968471        0.0651853819
 H       -10.5299859571       -2.5371028355        1.0492633723
 H       -10.0000478519       -4.1969307841        0.8881633069
 H       -15.1828136933        1.7155245326       -1.7558305740
 H       -14.3136625059        0.1762135781       -1.4968990794
 H       -14.3554262706        1.0303445858       -3.1351177553
 H       -13.4080982488        3.2316779420       -3.3881997389
 H       -12.1857406289        3.7556800909       -2.2910501452
 H       -13.9113127924        3.8852957198       -1.8185950724
 H        -9.7587362693        0.7761751998        2.6765313819
 H       -10.3679632812        1.8792946721        3.7325148072
 H        -8.6391123560        1.6124750897        3.7787023332
 H        -8.2164935305        4.0834546901        3.6326901528
 H        -9.8967183527        4.4973723614        3.8042484229
 H        -9.1728720752        5.0906191090        2.3709356734
 H        -5.7331542236        3.6425346695       -4.2601395252
 H        -5.5117848384        5.5599227714       -4.4045909399
 H        -7.0004536605        4.8780432716       -3.8568581027
 H        -3.6060330578        3.7936972893       -1.4000686526
 H        -3.3391274801        4.6441056866       -2.9318813921
 H        -3.8892120167        2.9629178929       -2.9662774757
 H        -5.7978514478       10.8043107699        1.9563430707
 H        -6.9114957413       11.0512190407        0.7425636020
 H        -5.5239788587       10.0819170620        0.4159645088
 H        -6.6330421989        9.1303059847        3.6505251453
 H        -5.2885418113        8.5800563463        2.7413825733
 H        -6.5330442564        7.4532512907        3.0876306865
 H       -14.0242110681        9.1282378335        3.6859908232
 H       -15.0110000110        9.1725000764        2.2438656995
 H       -13.3325352263        9.8461545250        2.0913992114
 H       -13.8625251650        5.6246199210        2.3563858716
 H       -15.1264439240        6.8562847674        2.9235172599
 H       -13.7439882605        6.3489815881        3.9263553017
 Na       -8.8707657309        1.5651328518       -1.3028282591
