117

 C       -13.5498362348        8.5367821446       -0.6005619204
 C       -13.4824361191        7.2994666557        0.4250007893
 O       -13.6929086071        6.1894141953        0.0627215941
 C       -13.2898765787        7.6512189684        1.9691215749
 C       -11.7543241338        7.5515642517        2.3692612055
 O       -11.3480360679        6.4405064591        2.5991211252
 C       -10.8608552409        8.7707277794        2.3969403141
 C        -9.3989392918        8.3670510275        2.5430628597
 C        -8.4632713205        9.4432134704        1.8299646181
 O        -8.8813432517       10.5482900167        1.6063457177
 C        -6.9519299482        9.0617022932        1.5191817156
 C        -6.9851296129        7.9560944291        0.4312000589
 O        -7.5409206420        6.9221655822        0.6975426208
 C        -6.3627798228        8.2353001424       -0.9815482940
 C        -6.5803078174        6.9355513509       -1.8604210480
 C        -5.5094508156        5.8836066298       -1.4750420574
 O        -4.6190501983        6.0587165754       -0.6439247408
 C        -5.5578269138        4.5607507303       -2.3397445479
 C        -6.4533053897        3.5880403293       -1.5306779108
 O        -7.4385528272        3.1163053710       -1.9642101701
 C        -6.0208213386        3.3313862522       -0.0518826037
 C        -7.1452777008        3.8036239427        0.9058267850
 C        -8.0661920763        2.6695298394        1.3264449443
 O        -8.0382557104        1.5519610275        0.7949516536
 C        -9.2893845289        2.9426536352        2.3192747872
 C       -10.5469856205        2.7420245775        1.3888674338
 O       -10.5937096554        2.1313760313        0.3643422986
 C       -11.8129737921        3.5321014979        1.8282871423
 C       -12.9403050111        3.3201967670        0.7416982399
 C       -12.8827234639        1.9901615956       -0.0173345320
 O       -12.9935344308        0.9218519922        0.5511050890
 C       -12.9602694706        1.9630247433       -1.6347316713
 C       -11.7424764963        1.3309249875       -2.2448271665
 O       -10.7436321255        2.0158372063       -2.5077133571
 C       -11.6658991709       -0.1865089318       -2.5770939412
 C       -11.2587978477       -1.2807836230       -1.5053692264
 C        -9.8719347568       -1.6617798849       -1.3035581706
 O        -8.9321693036       -0.8995151497       -1.4775787607
 C        -9.5554929312       -3.0914458586       -0.7783831284
 C        -9.9094040685       -4.2090914167       -1.8900984479
 O       -10.9972462149       -4.1063039439       -2.4125117055
 C        -8.8376911352       -5.3348198100       -2.2557189097
 C        -8.0332546762       -3.1892501393       -0.5136363689
 C       -10.3828728611       -3.3716440287        0.4580546536
 C       -14.1864171929        1.0597674880       -2.0831467264
 C       -13.1504173020        3.3675241067       -2.1330603249
 C        -9.2934383773        1.7386700378        3.3037073300
 C        -9.1339552292        4.2348429544        3.0906324946
 C        -6.1194859400        4.8692222778       -3.7840480833
 C        -4.1647896734        3.8908237912       -2.3291924909
 C        -6.2281089621       10.3417344388        0.9980628518
 C        -6.2962564814        8.5861782554        2.8887243151
 C       -13.9644276001        9.0211478244        2.2194623815
 C       -14.0418079137        6.5819107451        2.8294021225
 H       -14.6169061270        8.7849465292       -0.7810609779
 H       -13.2204016702        8.2686113153       -1.6445232310
 H       -13.0078627920        9.3728479795       -0.1333791151
 H       -11.1533262867        9.2546554311        3.3205552299
 H       -11.1315035816        9.4173333214        1.5298359420
 H        -9.0283723042        7.4105291955        2.2782159694
 H        -9.2776229882        8.5086740678        3.6030945096
 H        -5.3045050761        8.4399781109       -0.7688148125
 H        -6.8137834808        9.1297742648       -1.4778956688
 H        -6.4072512872        7.2014438988       -2.8927125879
 H        -7.5942236111        6.5231818215       -1.7783853501
 H        -5.1343442521        3.8802820812        0.0956336535
 H        -5.8059242723        2.2664307913        0.0617090306
 H        -7.8101284313        4.5678389564        0.3904728291
 H        -6.7107414825        4.3309957726        1.7324160709
 H       -11.6465185143        4.6438419770        2.0346290076
 H       -12.2202807590        3.0616018015        2.7907743902
 H       -12.9381186149        4.2162000677        0.1058497425
 H       -13.9384636501        3.2087785006        1.1728048528
 H       -11.2048511886       -0.4027587396       -3.5572919616
 H       -12.6666997836       -0.4964228353       -2.7764770242
 H       -11.8183817499       -2.1949938719       -1.7812101447
 H       -11.6334136840       -0.9446842884       -0.4697802008
 H        -8.1506614097       -5.0077468635       -3.0260540924
 H        -9.3101896294       -6.2173404515       -2.6134532022
 H        -8.1531308682       -5.6399152212       -1.3972371491
 H        -7.5340968617       -3.4739013130       -1.4607539246
 H        -7.8503044706       -4.0658376861        0.2004020471
 H        -7.7981256577       -2.2480158024       -0.0660001963
 H       -11.4131364767       -3.5168027759        0.2187725215
 H       -10.2792965982       -2.5478129034        1.1900854067
 H       -10.0570614672       -4.3139270380        0.9019106954
 H       -15.0686869823        1.6676320477       -1.7311985658
 H       -14.0304481093        0.0808125113       -1.5899362444
 H       -14.1988048733        0.9894207363       -3.1352919597
 H       -13.1490840016        3.3338531289       -3.2383038290
 H       -12.3407438197        4.0403068993       -1.9191628380
 H       -14.1143951454        3.7636664270       -1.8642895480
 H        -9.5620034962        0.8223696271        2.7191634061
 H       -10.1271948491        1.7854445082        4.0641340890
 H        -8.2974251550        1.5176133631        3.7119388190
 H        -8.3816779190        4.0678161875        3.8383915360
 H       -10.0132715139        4.5854877048        3.5980779360
 H        -8.9849374107        5.1092499564        2.3911034145
 H        -6.4405421576        3.9437214653       -4.1542354789
 H        -5.4313177211        5.3682422327       -4.4298811557
 H        -6.9099137547        5.5549587115       -3.6261599393
 H        -4.1873290232        3.1711020617       -1.5595298238
 H        -3.2475294879        4.6020358278       -2.2427506929
 H        -4.0628324053        3.3025910793       -3.2151977519
 H        -6.3021379086       11.1248455923        1.7389596289
 H        -6.6368331170       10.7052283986        0.0266426908
 H        -5.1570269335       10.0802615297        0.8592734839
 H        -6.3693379573        9.3962722518        3.6213014273
 H        -5.2578151010        8.3833711392        2.7090417492
 H        -6.7269946714        7.6066582750        3.1870586004
 H       -13.9901896051        9.3160663976        3.2589857498
 H       -14.9954454669        8.7824583041        1.9816086354
 H       -13.5604091266        9.7813288940        1.6220949069
 H       -13.4587723660        5.6961521012        2.8549905992
 H       -15.0071908603        6.4534988070        2.3881928845
 H       -14.2588658756        6.9555402720        3.8323594377
 Na       -8.9652885528        1.3230006515       -1.1884091004
