117

 C       -12.8710892865        8.5284618838       -0.7724627669
 C       -13.3126316788        7.5275176534        0.2006277556
 O       -13.8491545836        6.5310303136       -0.1476767024
 C       -13.2136586715        7.8270727597        1.7787379391
 C       -11.6614431672        7.6024922885        2.2153298895
 O       -11.2175552819        6.4583548223        2.1969100821
 C       -10.8874444193        8.8688841637        2.5125001757
 C        -9.4416357059        8.4994629064        2.6770979921
 C        -8.5556710289        9.4438213436        1.7727358401
 O        -9.0559769929       10.4250043708        1.2291959066
 C        -7.0820933912        9.1187497324        1.5047986677
 C        -7.0676368519        8.0659697065        0.4151764046
 O        -7.6202473784        7.0284481444        0.7121825103
 C        -6.2605314442        8.2188594331       -0.9430630885
 C        -6.3713778680        7.0665353279       -1.9241075517
 C        -5.5707091447        5.7945678378       -1.6305468113
 O        -4.7889899035        5.8826565498       -0.6587188856
 C        -5.6488564469        4.5133885138       -2.4713747140
 C        -6.4512595244        3.4523775404       -1.5520965249
 O        -7.3480034432        2.8666664409       -2.0509530537
 C        -6.0002172312        3.3124877104       -0.0445242242
 C        -7.1462141009        3.7194143065        0.8855300584
 C        -8.0536938685        2.5524174707        1.4720212872
 O        -7.8411820703        1.4210313412        1.0573609515
 C        -9.2801213293        2.8302678558        2.4276722917
 C       -10.5589203728        2.6507216651        1.4993571354
 O       -10.5374086199        2.2076507878        0.3978054235
 C       -11.9062252877        3.2275387304        2.0380614935
 C       -12.8574711269        3.3608589382        0.7685321104
 C       -12.9473626118        2.0983037707       -0.0266255147
 O       -13.0307757511        1.0719550723        0.6238819617
 C       -13.0077943727        1.9050785992       -1.6390965326
 C       -11.6832676144        1.2836577860       -2.1613001266
 O       -10.7510757054        2.0116279992       -2.2540440324
 C       -11.5187805424       -0.2568566398       -2.5395721136
 C       -11.3799350855       -1.2912872999       -1.4307109676
 C        -9.9503308140       -1.7042936213       -1.2407460439
 O        -9.0168692049       -0.9065295071       -1.4326114767
 C        -9.5013271370       -3.1018182525       -0.6615021227
 C        -9.9467974527       -4.2292880473       -1.7149764460
 O       -11.0838440125       -4.1989003346       -2.1091600564
 C        -9.0106533719       -5.3869846161       -2.1449565161
 C        -7.9915633267       -3.0444775669       -0.4498063994
 C       -10.2417307117       -3.5462308186        0.6707337014
 C       -14.3695863217        1.1730619994       -1.8748334790
 C       -13.1196756207        3.2602935373       -2.3553821437
 C        -9.3819457216        1.7488333479        3.4965730297
 C        -9.3007031253        4.2002992395        3.0902147014
 C        -6.5156071298        4.6331379472       -3.7998253632
 C        -4.2538594906        3.9023163571       -2.5261246169
 C        -6.2944085103       10.4196490370        1.1452367542
 C        -6.2633266897        8.4907748514        2.7390189590
 C       -13.7435770442        9.2111478463        2.2957844094
 C       -14.0754504323        6.7111769026        2.4495600581
 H       -13.7202365094        9.2213601858       -0.9171271867
 H       -12.7301598839        7.9752378363       -1.7023403155
 H       -12.0329990865        9.0983065242       -0.5483798578
 H       -11.3589473901        9.1774641279        3.4354178566
 H       -10.9206514193        9.6341810909        1.7896306693
 H        -9.2228297541        7.4754382177        2.4063386882
 H        -9.0297751509        8.6761230326        3.7327547388
 H        -5.2166407262        8.3198486549       -0.6385438088
 H        -6.5510239771        9.1474552308       -1.3682680571
 H        -6.0581236753        7.3963545559       -2.9169927293
 H        -7.4538097360        6.7598226896       -2.0561102456
 H        -5.0331684416        3.8852092313        0.0126357964
 H        -5.8558688254        2.2490767749        0.1784037827
 H        -7.7683024296        4.4501370149        0.3981929293
 H        -6.7279859560        4.2571872466        1.7212788768
 H       -11.8072773624        4.1478977308        2.5294054711
 H       -12.4065029174        2.5765477596        2.7316619564
 H       -12.5996706001        4.2345120851        0.1791212559
 H       -13.8587265735        3.3972223918        1.1813894025
 H       -10.6473550643       -0.3546676305       -3.2000179717
 H       -12.3603485758       -0.4763122188       -3.1842376231
 H       -11.9167627164       -2.1559246129       -1.5688446567
 H       -11.7845150303       -0.8079787097       -0.4885345264
 H        -8.1129514659       -5.1003029600       -2.5986120984
 H        -9.5963998063       -6.0114589498       -2.8153071163
 H        -8.6958007165       -6.0507887128       -1.2942251171
 H        -7.6166475383       -2.6026438134       -1.3493429344
 H        -7.6207539632       -4.0459586876       -0.3723613817
 H        -7.8265245117       -2.4850652748        0.3776395333
 H       -11.3219808668       -3.4649787632        0.6378549018
 H        -9.8558452089       -2.9470603155        1.4771759381
 H       -10.0935046665       -4.6333061440        0.8373733780
 H       -15.0402526812        1.8585602240       -1.4136522888
 H       -14.2977581880        0.1996822579       -1.4124122433
 H       -14.4817019775        1.0447657947       -2.9245169361
 H       -13.3981602176        3.1524152899       -3.4115541107
 H       -12.1461141909        3.7888535089       -2.3236248215
 H       -13.8671839295        3.8913528843       -1.9245836429
 H        -9.1196535918        0.8014668407        3.1461664546
 H       -10.3827304027        1.8190576824        3.8987799013
 H        -8.6606216317        1.8798857989        4.2712789343
 H        -8.2488982758        4.3938468682        3.4767185008
 H        -9.9753083557        4.1542960316        3.8981963041
 H        -9.5898916951        5.1641500473        2.5543064853
 H        -6.3162681593        3.6898275023       -4.2982920156
 H        -6.0399497014        5.4106758603       -4.4859657120
 H        -7.5764518900        4.8226194628       -3.4947447588
 H        -3.9782021628        3.3410916770       -1.6153917061
 H        -3.5402112657        4.7913320997       -2.4564713128
 H        -4.0816639832        3.3112241949       -3.3785383226
 H        -6.3372099665       11.0751416953        1.9727213145
 H        -6.5453633558       10.8972180198        0.2515492655
 H        -5.2368195373       10.1373658514        1.0916206896
 H        -6.2258944146        9.2807214680        3.5084165826
 H        -5.2744238539        8.1702753804        2.4747510287
 H        -6.8410941354        7.6647162891        3.0712804927
 H       -13.5951061077        9.1186631171        3.3890082915
 H       -14.8123310344        9.4717356485        2.1168207620
 H       -13.0282439236       10.0041646902        2.0814690619
 H       -13.5171002162        5.8269967391        2.1868937639
 H       -15.1113592962        6.6149756956        2.0242039079
 H       -14.2172271292        6.9266555162        3.5340275700
 Na       -8.8587297467        1.4675687120       -1.3254133434
