117

 C       -12.5452283947        8.6634130641       -0.7894691788
 C       -13.3133201017        7.6585640590        0.1758620637
 O       -13.8359103658        6.6046079822       -0.1655758989
 C       -13.1901005163        7.9066590664        1.7634582954
 C       -11.7021672515        7.6479933587        2.1300355626
 O       -11.2611188131        6.5282416706        2.0095849109
 C       -10.8756383084        8.8567319366        2.5494251677
 C        -9.3510529217        8.5385287315        2.6942701052
 C        -8.5428979512        9.4620031473        1.7109871752
 O        -9.0845812544       10.3331520977        1.1361376233
 C        -7.0620855464        9.0962066733        1.4361374972
 C        -6.9967739054        7.9798873168        0.4032992444
 O        -7.6373139296        6.9796753862        0.5194454475
 C        -6.2124797966        8.2272749678       -0.9203498685
 C        -6.4917868762        7.1276442236       -1.9290609621
 C        -5.5794809894        5.8818580342       -1.6144176694
 O        -4.8720661310        5.8163559952       -0.6671512944
 C        -5.6482561917        4.5318023790       -2.4325593229
 C        -6.4338440368        3.4645165677       -1.5132353963
 O        -7.2837861305        2.7536687921       -1.9979272542
 C        -6.0273512542        3.2670728759       -0.0725448541
 C        -7.1266636512        3.6807708417        0.9310791359
 C        -8.0564498964        2.5617023374        1.4218736363
 O        -7.7570995420        1.3762499394        1.2009189831
 C        -9.2877146056        2.7940872303        2.4549193003
 C       -10.5173789093        2.6730561524        1.4876448414
 O       -10.3879189163        2.1936533111        0.3655122297
 C       -11.9436021031        3.0153239129        2.0729622294
 C       -12.7955127556        3.3932863545        0.7605165591
 C       -12.9628894264        2.0378976088       -0.0124345104
 O       -13.0436787539        0.9626013178        0.5574254434
 C       -13.0764414510        1.9901570982       -1.6016129857
 C       -11.7776082046        1.2728649852       -2.0433974894
 O       -10.7329984806        1.9216900182       -2.2083956499
 C       -11.7115047033       -0.2282696632       -2.4852596055
 C       -11.4436546552       -1.2946757541       -1.3028044129
 C        -9.9405510391       -1.6175089752       -1.1088939767
 O        -9.0158049129       -0.9129017942       -1.4639545881
 C        -9.4755435983       -3.1309176678       -0.6332722071
 C       -10.0118491767       -4.1835701835       -1.6446625518
 O       -11.1707440467       -4.1684720015       -2.0738094052
 C        -9.0756215884       -5.3092441231       -2.0835366356
 C        -7.9020559096       -3.1765053398       -0.4112497684
 C       -10.2411408602       -3.4833423898        0.7250124312
 C       -14.3089172242        0.9830669810       -1.9702082123
 C       -13.2221992926        3.3563276323       -2.3483046169
 C        -9.5010541126        1.6968170798        3.5134831286
 C        -9.2094500815        4.1947203934        3.0670834279
 C        -6.4450268562        4.7925644187       -3.7562052717
 C        -4.2535643537        3.8860537440       -2.6866518181
 C        -6.2763364503       10.4599383939        1.0876550533
 C        -6.4611682456        8.4840803859        2.7815540746
 C       -13.8082778486        9.2259448384        2.1806977542
 C       -13.9738595552        6.7846461334        2.4321665616
 H       -13.0448105024        9.6220649756       -0.8015547186
 H       -12.5193365321        8.2258452678       -1.7934244967
 H       -11.4549600073        8.8995782814       -0.5428361990
 H       -11.2977192633        9.2420232780        3.4168807145
 H       -10.9620674914        9.5659136228        1.7752625816
 H        -9.1390844095        7.5152026807        2.4558493340
 H        -8.9574636029        8.7182525946        3.6765507688
 H        -5.1498738320        8.2421676714       -0.7424486761
 H        -6.4987939437        9.2561115043       -1.1806311230
 H        -6.4655029631        7.4214752477       -2.9866659467
 H        -7.5070085305        6.7127147525       -1.7776096461
 H        -5.1114364919        3.7815145440        0.0343598665
 H        -5.8953740857        2.1741310899        0.0412046525
 H        -7.7182981498        4.4947433688        0.4754441746
 H        -6.6679893463        4.1058755833        1.7686035373
 H       -11.9385167639        3.7777623387        2.9037550892
 H       -12.3893045869        2.1035812766        2.5192251949
 H       -12.1929615261        4.0618924454        0.1447686375
 H       -13.7689607001        3.7726593359        1.0084164414
 H       -11.0354240304       -0.3488305863       -3.3491157353
 H       -12.6761721596       -0.4112552878       -2.8763873094
 H       -11.9271946162       -2.2925742855       -1.4342759544
 H       -11.9574052285       -0.8252120461       -0.4187799803
 H        -8.0405221702       -4.9934265799       -2.2901928175
 H        -9.4851790546       -5.7619619734       -2.9280434562
 H        -8.9715975699       -6.1273660588       -1.3237380315
 H        -7.4767898365       -2.6749473553       -1.2315955329
 H        -7.5662127428       -4.2041812469       -0.3183379851
 H        -7.7323098552       -2.5967509279        0.4785516347
 H       -11.2913057733       -3.5631141075        0.5683738613
 H       -10.0578291630       -2.7006602388        1.4923015097
 H        -9.9831624671       -4.4619081124        1.0915368397
 H       -15.1467975075        1.5052252294       -1.4859478783
 H       -14.0446659020        0.0821433167       -1.4301885857
 H       -14.3239763820        0.7645705284       -2.9847358313
 H       -13.4063518381        3.1284995301       -3.4231460414
 H       -12.3776848985        4.0237805232       -2.2763435581
 H       -14.1218630367        3.9145940903       -2.0222007725
 H        -9.2784096464        0.7306718679        3.0836396349
 H       -10.5072524002        1.8340407368        3.9203730452
 H        -8.8196966276        1.7319959065        4.3217005705
 H        -8.2448564362        4.2743157991        3.5592059146
 H       -10.0631868074        4.4058054358        3.8056881082
 H        -9.1828175621        5.0950544556        2.3735656511
 H        -6.5431759755        3.8992509149       -4.3953682704
 H        -5.8080785480        5.4768466349       -4.3163233925
 H        -7.4059600309        5.2235797412       -3.4174191613
 H        -3.7325787753        3.5829055857       -1.8088673673
 H        -3.5913255759        4.7317580909       -3.0758881093
 H        -4.3432462807        3.0453470366       -3.4155273876
 H        -6.0334277287       10.9420487365        1.9687203825
 H        -6.9032914068       11.1008631974        0.4660528884
 H        -5.3962718163       10.3185949439        0.5758273753
 H        -6.6621728696        9.1426525699        3.5728633233
 H        -5.4298373002        8.3329848174        2.7183116178
 H        -7.0079104425        7.5470005592        2.9745533253
 H       -13.6331270879        9.5032108694        3.2322630347
 H       -14.9117076613        9.2100477327        1.9907197393
 H       -13.3282320401        9.9951825007        1.5953073090
 H       -13.6647687339        5.8677972977        1.9503743856
 H       -15.0294674766        6.9090619230        2.2447346153
 H       -13.8534156399        6.8809006119        3.5133822372
 Na       -8.8392342801        1.4739236778       -1.1878317760
