117

 C       -12.2159116281        8.6947683004       -0.6188597808
 C       -13.1819837380        7.6814184432        0.0403383571
 O       -13.8054167480        6.8562849535       -0.5238179167
 C       -13.2069749580        7.9866787540        1.6465351984
 C       -11.7330141420        7.7463588432        2.0679370236
 O       -11.1578676834        6.7080579021        1.7716019812
 C       -10.9133754036        8.9426978420        2.7040215740
 C        -9.4730961258        8.5866249795        2.6346218356
 C        -8.6454313283        9.3844643292        1.5893210258
 O        -9.0362512984       10.2675335512        0.8332473805
 C        -7.0616642890        9.0445967533        1.3749450059
 C        -7.0283977665        7.9766230794        0.3162377604
 O        -7.6782348957        6.9412317785        0.5507065770
 C        -6.2883160361        8.2651263601       -0.9865456112
 C        -6.3488910397        7.1024609798       -1.9500244652
 C        -5.4822363500        5.8634346931       -1.5304183927
 O        -4.7722643297        5.8960981193       -0.5018639037
 C        -5.7270061668        4.5730071608       -2.3651858721
 C        -6.5199534470        3.4755676457       -1.5720788730
 O        -7.3003184227        2.7057616384       -2.1151124791
 C        -6.0472570220        3.1959850875       -0.1220710988
 C        -7.1443499445        3.6439824623        0.9334785707
 C        -7.9265738568        2.4690932686        1.5561116868
 O        -7.6755820722        1.3122484153        1.3641616933
 C        -9.1786321026        2.7701471156        2.4339932027
 C       -10.4588324739        2.6458782256        1.4092610302
 O       -10.2630793149        2.2178789033        0.3100059693
 C       -11.8814082027        3.0562226877        1.9049684916
 C       -12.7907910401        3.1759377639        0.7060143291
 C       -13.0008347661        1.7976067870       -0.0435003571
 O       -13.1619097394        0.7593845324        0.5703359239
 C       -13.2231250214        1.7828217663       -1.6545675792
 C       -11.7510739674        1.1521793952       -2.0910767148
 O       -10.8782156504        1.9323236752       -2.2889845998
 C       -11.7196489044       -0.3874776968       -2.2897626654
 C       -11.3998686841       -1.1430906278       -1.0298884221
 C        -9.9045622047       -1.6092953015       -1.0183252634
 O        -8.9945016646       -0.8703552965       -1.4056689946
 C        -9.5634901921       -3.0960234238       -0.5441069429
 C       -10.1046131845       -4.1024676202       -1.5987783894
 O       -11.2445958338       -4.0582977943       -1.9808768702
 C        -9.2451304894       -5.1891383648       -2.1041690392
 C        -7.9873865382       -3.1586180450       -0.3011623115
 C       -10.3415637797       -3.2195870840        0.7810835793
 C       -14.5702496556        1.0035836216       -2.0266520475
 C       -13.3776012423        3.2345751675       -2.2032942948
 C        -9.3375764811        1.6719713012        3.5634418793
 C        -9.1424464259        4.1893732020        3.1187879328
 C        -6.5703606576        4.7964652645       -3.6452361075
 C        -4.2873028912        4.0468817888       -2.7996559903
 C        -6.2565722218       10.3020845478        1.0985823845
 C        -6.4429991956        8.4979726454        2.7094453722
 C       -13.7486472733        9.3404922583        1.9705970114
 C       -14.0252866207        6.9018616309        2.4547485208
 H       -12.1725562056        9.6275642705       -0.0103219038
 H       -12.1819061545        8.8121110418       -1.7179146429
 H       -11.2481258023        8.2921468816       -0.4167144084
 H       -11.1069234408        9.0443639228        3.8495920520
 H       -11.3014121925        9.8397652377        2.1228821294
 H        -9.4772944552        7.5215234993        2.3023668709
 H        -8.9475111086        8.5854622932        3.6113212845
 H        -5.2312312744        8.5477092148       -0.7300212248
 H        -6.7132652326        9.2024014334       -1.3658393510
 H        -5.9999361150        7.4389128903       -2.9219823105
 H        -7.3697979249        6.8062803932       -2.1669288668
 H        -5.1004995969        3.7747207529        0.1200401053
 H        -5.8541809605        2.1423117017       -0.1061083174
 H        -7.6955037053        4.5165764468        0.5843810887
 H        -6.4431322357        4.0807852113        1.7307370779
 H       -11.9425421663        3.9423029419        2.5319545677
 H       -12.2165280720        2.2107642702        2.5737256769
 H       -12.3095343502        3.8838605087        0.0295724943
 H       -13.7793799894        3.5042422492        1.1030114348
 H       -10.8590796718       -0.5747947982       -2.9351255377
 H       -12.6366987540       -0.7590975365       -2.8201418537
 H       -12.0799285237       -2.0107520475       -1.0153540556
 H       -11.6438099935       -0.6291172814       -0.0942632276
 H        -8.2626420195       -4.8682007635       -2.3777287538
 H        -9.7207220547       -5.7203135424       -2.9790531866
 H        -9.1189692975       -5.9534682152       -1.3490247845
 H        -7.4450728601       -3.1268473719       -1.3180351584
 H        -7.8357651714       -4.0688253622        0.3252577220
 H        -7.6690504552       -2.2417247502        0.2331081823
 H       -11.4240341796       -3.3870775189        0.6081949166
 H       -10.2448164505       -2.3310983232        1.3639741421
 H        -9.9932618741       -4.0662530931        1.4114687694
 H       -15.3009943122        1.7311672364       -1.8054549973
 H       -14.6774078799        0.1089140071       -1.4140868626
 H       -14.3717055475        0.7429676271       -3.0894668755
 H       -13.5403983729        3.3407803710       -3.2593549702
 H       -12.4952964781        3.8293534518       -1.8943861117
 H       -14.1870508940        3.7285749585       -1.6925380919
 H        -9.3480861172        0.6752887945        3.0987856572
 H       -10.1218082788        1.9192295670        4.3016121097
 H        -8.3860423172        1.6076151464        4.1957151218
 H        -8.3436850322        4.3339754351        3.8519362830
 H       -10.0444483643        4.3785031889        3.5592018390
 H        -8.8720011238        4.9733032212        2.4498245133
 H        -6.6996643680        3.8763243420       -4.1534400632
 H        -6.0352373848        5.4594229642       -4.2997433297
 H        -7.5464387253        5.0245484598       -3.3052415440
 H        -3.6108398960        4.3726337948       -1.9807205101
 H        -3.9245211102        4.5213637661       -3.6846530117
 H        -4.2528873854        3.0022674134       -2.8380572011
 H        -6.0117016144       10.8935322849        2.0403457100
 H        -6.8488345672       10.9438762474        0.4535391911
 H        -5.2832297699       10.1235493249        0.5078680500
 H        -6.7684339694        9.0865389223        3.6191311471
 H        -5.3379464157        8.6077399942        2.5841978580
 H        -6.7699428445        7.5070747394        2.9231127413
 H       -13.5693374160        9.6196486309        2.9958401276
 H       -14.8090188349        9.2942545913        1.8212556263
 H       -13.3758902068       10.1319210864        1.3227353485
 H       -13.8715418758        5.9404347897        2.0257098634
 H       -15.0827654790        7.1113293297        2.3025519925
 H       -13.7363105476        7.0451023877        3.4850353316
 Na       -8.6892841652        1.2297486137       -0.9171515355
