117

 C       -12.0250414120        8.6376842991       -0.7366629291
 C       -13.1281135548        7.8138996752        0.0243645395
 O       -13.7997176919        6.9873773765       -0.5591518647
 C       -13.2576132247        8.0263417976        1.6031383712
 C       -11.6944957878        7.8343603043        1.9874647823
 O       -11.1556498238        6.7696489047        1.7640397732
 C       -10.8993004134        8.9231686087        2.6578408827
 C        -9.3543271500        8.6502972218        2.6105549508
 C        -8.6001764207        9.4735871495        1.5485663912
 O        -9.1610696406       10.1592822724        0.7699328765
 C        -7.0639334239        9.1209852122        1.4258361969
 C        -7.0797395724        7.9254063273        0.3762002567
 O        -7.6331834294        6.8787142592        0.5419431906
 C        -6.3836175099        8.3019640827       -0.9652420065
 C        -6.2479098107        7.1916933556       -1.9960909448
 C        -5.5616437977        5.8273522167       -1.5345953627
 O        -4.7910000469        5.8093409366       -0.6214954694
 C        -5.7640269988        4.5238064360       -2.3557672787
 C        -6.4123536263        3.3512983074       -1.5858527273
 O        -7.3603516462        2.7918256480       -2.0520505532
 C        -5.9712348330        3.1269447816       -0.0802987449
 C        -7.0879811345        3.6084092528        0.8990935600
 C        -7.9358114940        2.4978409109        1.5243234940
 O        -7.5706842916        1.3073603414        1.3659957696
 C        -9.1948376157        2.7742410865        2.4131623066
 C       -10.3904309875        2.6106778235        1.4912346032
 O       -10.2413464855        2.2495104023        0.3308282255
 C       -11.7759091206        3.1384723902        1.8902909068
 C       -12.8588673992        3.0186920126        0.6888584294
 C       -13.1745072242        1.7336115454        0.0084469868
 O       -13.2034400793        0.6690691769        0.6109170509
 C       -13.2550873172        1.7711767426       -1.5871525675
 C       -11.9379590254        1.1607797007       -2.1837918145
 O       -10.9307398698        1.8228750386       -2.2962203480
 C       -11.7223389043       -0.3774356889       -2.3425585802
 C       -11.2813411273       -1.0559145206       -1.0207999114
 C        -9.9055696653       -1.6361463984       -0.9214532233
 O        -8.9442802660       -0.9669452823       -1.3776399512
 C        -9.6310055468       -3.0080238913       -0.4119244081
 C       -10.1964202476       -4.0858054879       -1.5548746042
 O       -11.3468524636       -3.9134131406       -1.8936653111
 C        -9.2309721201       -5.2175506965       -2.1508494755
 C        -8.0454541307       -3.0922981830       -0.2689396503
 C       -10.4161326742       -3.2104487272        0.8864148451
 C       -14.5381372989        0.9892783071       -2.0058207432
 C       -13.3489059510        3.1488893481       -2.2063268590
 C        -9.2431690827        1.7275804349        3.5704962080
 C        -9.1906517114        4.1334547267        3.1381439508
 C        -6.7217242350        4.7973260038       -3.6124625478
 C        -4.2759298920        4.0544200106       -2.6400933711
 C        -6.2562159292       10.3922880142        1.0518703620
 C        -6.3889581591        8.3780930334        2.7248037295
 C       -13.7584083245        9.3515611652        1.9650481584
 C       -14.1021918225        6.9595594675        2.2884234884
 H       -11.7877303280        9.5183977596       -0.1874350133
 H       -12.2831652684        8.7945400009       -1.7635390601
 H       -11.1048543779        8.1077658954       -0.8450136266
 H       -11.0895827830        8.8781515752        3.7644925830
 H       -11.2620241744        9.9086510037        2.2247665025
 H        -9.2211447867        7.5576381798        2.4660960925
 H        -8.8852823507        8.8936905238        3.6504901624
 H        -5.4436526849        8.7931189385       -0.6968523298
 H        -6.9333304937        9.1101989283       -1.4184413950
 H        -5.7416426270        7.6055202544       -2.8561027963
 H        -7.2639766000        7.0098382257       -2.4314709032
 H        -5.0199728073        3.6196636813        0.2223922835
 H        -5.8548618296        2.0178330391       -0.0434448619
 H        -7.7236712761        4.3456276417        0.3712041472
 H        -6.5253713219        4.2048456745        1.6182234482
 H       -11.7805875163        4.1418644889        2.2109078589
 H       -12.0906096389        2.5967677468        2.7561396084
 H       -12.5544967019        3.7382220040       -0.0813383544
 H       -13.8112656009        3.2749982376        1.1594514088
 H       -10.8809708656       -0.4460382718       -3.0772359263
 H       -12.5657792942       -0.9481732893       -2.7127062294
 H       -12.0544057109       -1.6759196078       -0.7864070800
 H       -11.2664445894       -0.3820814198       -0.1276331818
 H        -8.3965178940       -4.8011770320       -2.6752984535
 H        -9.7649209892       -5.8004592834       -2.8423630756
 H        -8.8221039682       -5.9723726494       -1.3997471581
 H        -7.5799926570       -3.1187670261       -1.2546190811
 H        -7.9286882400       -3.9891708528        0.3903724294
 H        -7.6551421353       -2.2180916926        0.1966064331
 H       -11.4802930138       -3.2409587173        0.6772015376
 H       -10.2654961107       -2.4073415124        1.6392236975
 H       -10.1256150366       -4.1502043434        1.4108806673
 H       -15.3267384025        1.6945432948       -1.7373662265
 H       -14.6088867599        0.0810373147       -1.3935721217
 H       -14.3772751049        0.8037733989       -3.0173239238
 H       -13.7729553049        3.0239722907       -3.2056550169
 H       -12.4108918969        3.6692030981       -2.2913695239
 H       -13.9854629911        3.8090492970       -1.6632658654
 H        -9.3579229592        0.7514398013        3.1034122432
 H        -9.9740348720        1.9844338913        4.3663239469
 H        -8.3058365847        1.6673982263        4.1236581822
 H        -8.3328549048        4.2894817712        3.7217300306
 H       -10.0252379721        4.2267741742        3.8012502867
 H        -9.0566329429        4.9579466605        2.4446263730
 H        -6.7715940139        3.9485534958       -4.2593889629
 H        -6.4355586383        5.6701269148       -4.2019342223
 H        -7.6952086817        4.7221721256       -3.1630253170
 H        -3.6945728662        4.2983399473       -1.7954939844
 H        -3.7945202935        4.5508368992       -3.5443599762
 H        -4.2595659092        3.0139176312       -2.7158120524
 H        -6.4040522436       11.1663129171        1.8324705957
 H        -6.4611662867       10.8795649879        0.0325453479
 H        -5.1626694952       10.1261506492        1.0501467500
 H        -6.4094290195        8.9767927613        3.6822392120
 H        -5.3500667487        8.1939694049        2.4340783998
 H        -6.9752593960        7.4638201040        2.9841073630
 H       -13.7004330598        9.4065816201        3.0606587786
 H       -14.7951906372        9.6026271521        1.6751228616
 H       -13.1268447977       10.1061604024        1.5686228405
 H       -13.7916193511        5.9864188321        1.9489412865
 H       -15.1140669947        7.0547739988        1.8484416828
 H       -14.0530100014        7.1607231829        3.3803718192
 Na       -8.5669823486        1.1857105813       -0.9366535842
