117

 C       -11.8123964843        8.6300617602       -0.9816367699
 C       -13.0157787132        7.9661423344       -0.2882185301
 O       -13.9035556790        7.5634246964       -0.9911281755
 C       -13.0953509244        8.0841643064        1.3323824690
 C       -11.5675654898        7.8617218533        1.9216134515
 O       -11.1324738631        6.7271775672        2.0726438731
 C       -10.8557579178        9.0897098020        2.6548660889
 C        -9.4122535035        8.7853326157        2.8166957453
 C        -8.6533711067        9.2792174019        1.5779886175
 O        -9.2347801810        9.9161316204        0.7662437232
 C        -7.0444760563        8.9913171415        1.4704218127
 C        -6.8860359332        7.9103564102        0.2332849520
 O        -7.3261185365        6.8066159604        0.3998833013
 C        -6.2617578204        8.2717862769       -1.0641434229
 C        -6.4892484738        7.0383615585       -2.0328881510
 C        -5.6837988810        5.8095098702       -1.5754815123
 O        -5.0350530219        5.9517898705       -0.5558978201
 C        -5.7232204024        4.4984112957       -2.4379052840
 C        -6.4897021709        3.4945430241       -1.5093109459
 O        -7.4466309158        2.9138807754       -1.9306212369
 C        -5.9158013537        3.2908230606       -0.0470599463
 C        -6.9778236168        3.6537004210        1.1015496686
 C        -7.8500175605        2.4970891327        1.4699916505
 O        -7.5875753253        1.3448965780        1.1775111772
 C        -9.1793500982        2.7945791258        2.2994861038
 C       -10.3844369945        2.5209993726        1.4082003489
 O       -10.2574729611        1.9711878326        0.3205040855
 C       -11.7896308561        3.0253908337        1.9042715280
 C       -12.7761588031        3.1240793464        0.7555947134
 C       -13.0422558363        1.7980091320        0.0672300067
 O       -13.2200835630        0.7890608744        0.7481875113
 C       -13.1487810970        1.6892267903       -1.5085072907
 C       -11.7878319179        1.0802387128       -2.0220727362
 O       -10.8448766127        1.7850561331       -2.2809601418
 C       -11.5868812539       -0.4933300654       -2.0339287989
 C       -11.1790014005       -1.0859641298       -0.7110758595
 C        -9.8327590066       -1.6751650092       -0.7968173170
 O        -8.8869706204       -1.0942119445       -1.3880804644
 C        -9.6739545209       -3.0954206334       -0.2418818272
 C       -10.3092109202       -3.9142803025       -1.3266671444
 O       -11.4922792436       -3.7763646778       -1.6045277421
 C        -9.5833037784       -4.9669783653       -2.1584431082
 C        -8.1902702710       -3.4222510109        0.0625048136
 C       -10.5371906169       -3.2770375519        1.0842768847
 C       -14.4018204715        0.7338918540       -1.7846131921
 C       -13.5347821742        3.0597137213       -2.2013424535
 C        -9.2983195256        1.7338602580        3.4144795226
 C        -9.0755173066        4.2101020761        2.9406679144
 C        -6.6425629978        4.6685203339       -3.6814962907
 C        -4.2781988102        3.9337043119       -2.7103417690
 C        -6.4555967268       10.3512568544        1.0488885266
 C        -6.3790593339        8.4602720257        2.7630285797
 C       -13.5708849641        9.5218156155        1.6205424377
 C       -14.0650256067        7.0695522141        1.9658460460
 H       -11.0682989867        9.2014749308       -0.3286052260
 H       -12.1909770497        9.2637221065       -1.8390979722
 H       -11.2953937064        7.8759832085       -1.5669348920
 H       -11.3770904661        9.0010209843        3.6549058001
 H       -11.0175754179       10.1136406615        2.2476079440
 H        -9.2428522876        7.7490921052        2.7415833761
 H        -9.0082120306        9.1621095402        3.7383100875
 H        -5.2323585879        8.6949842005       -0.9153265484
 H        -6.8383787755        9.1385432698       -1.4219174859
 H        -6.1498406437        7.3342492916       -3.0172544629
 H        -7.5589785708        6.8774148243       -2.1879784376
 H        -5.0348932367        3.9687888598        0.0326237030
 H        -5.6197555063        2.3008049058        0.1426927913
 H        -7.5065313580        4.5759035538        0.8896803653
 H        -6.4080479864        3.8086038535        2.0944169322
 H       -11.7116338776        3.9047755901        2.5889340729
 H       -12.1885322262        2.2155638494        2.6180937213
 H       -12.3758836671        3.7949401393       -0.0184728162
 H       -13.7811501550        3.4829730059        1.0551627835
 H       -10.7151714423       -0.4986120572       -2.6842469474
 H       -12.3923175998       -1.0313549583       -2.5684634722
 H       -11.9253215212       -1.7339138424       -0.3665739744
 H       -11.1862724209       -0.3166481994        0.1285671637
 H        -9.1530215566       -4.5302628771       -3.0352553039
 H       -10.3306156154       -5.6719434958       -2.5261911077
 H        -8.7999916910       -5.6006975114       -1.6356424715
 H        -7.5712627527       -3.0565413597       -0.7852268882
 H        -8.1165173610       -4.5036660546        0.3771028033
 H        -7.8829949952       -2.8552244121        0.9069371594
 H       -11.5671531771       -2.9940588870        0.9753438381
 H       -10.1540934020       -2.7316513865        1.8961608320
 H       -10.4683293404       -4.2985307492        1.4725930934
 H       -15.2822968651        1.3044734050       -1.5175839591
 H       -14.3158144307       -0.1673890468       -1.1537847912
 H       -14.3342631520        0.6863697843       -2.8722701154
 H       -13.5382484985        2.9442150881       -3.2905809318
 H       -12.8801869010        3.9354084956       -1.9533919838
 H       -14.5079828020        3.3509687832       -1.8402786205
 H        -9.1031190614        0.7525716743        3.0018942020
 H       -10.3361112403        1.7278162088        3.8099803370
 H        -8.7112635261        2.0883388429        4.2744700168
 H        -8.1097151596        4.3851769696        3.4774054449
 H        -9.7358975107        4.2889431721        3.7467633496
 H        -9.1215514741        5.0858835593        2.2564333111
 H        -6.9886538131        3.7100724126       -3.9957452527
 H        -5.9870530626        5.1586038971       -4.4434438243
 H        -7.5705328986        5.2120598390       -3.4907819878
 H        -3.8316050415        3.5102729459       -1.7888296898
 H        -3.6012070776        4.7383658777       -3.1455702806
 H        -4.3141505229        3.1811468474       -3.4349379782
 H        -6.6864681751       11.0507657972        1.7980498804
 H        -6.7961870877       10.8030786419        0.1313283870
 H        -5.3807109249       10.2776114356        1.0181903296
 H        -6.6058549671        9.1202886593        3.6065832110
 H        -5.3080222596        8.4017552789        2.6694371929
 H        -6.7094961886        7.4900785077        3.0243534223
 H       -13.5898704338        9.7041358904        2.6919435365
 H       -14.5941740359        9.6817379442        1.2653467991
 H       -12.9614394401       10.2544370380        1.1055524039
 H       -13.5277860655        6.1613025205        1.8348670423
 H       -14.9999197725        6.9580442149        1.4122292113
 H       -14.1191044072        7.2534110808        3.0228731825
 Na       -8.8305059399        1.1315987792       -1.1501888701
