117

 C       -11.5983264392        8.6443544478       -1.0593691972
 C       -12.8336282562        8.0564521708       -0.3229907557
 O       -13.8100890758        7.7729048240       -0.9548958482
 C       -12.9884458871        8.1802455183        1.1867668829
 C       -11.6496612414        7.8742418210        1.8860844149
 O       -11.2793385188        6.7171947059        2.0245738187
 C       -10.9087903740        9.0749843403        2.6370264897
 C        -9.4074683275        8.7857505226        2.7969107491
 C        -8.6000224341        9.1827196706        1.5351908456
 O        -9.1997970154        9.7421784721        0.5961789117
 C        -7.0524522669        9.0013837727        1.3883389027
 C        -6.9986105133        7.9049703343        0.3750308844
 O        -7.4369324627        6.7663756055        0.6482188300
 C        -6.4096698527        8.1889983267       -1.0062327001
 C        -6.4345089558        7.1049101783       -2.0066704018
 C        -5.6591637596        5.9147883992       -1.6191164021
 O        -4.7793024597        6.0601952997       -0.7771640750
 C        -5.8076339522        4.5366596031       -2.4653765928
 C        -6.5038006615        3.4647588297       -1.4317780136
 O        -7.5526744925        2.9262234656       -1.7935914390
 C        -5.8842791269        3.1569204579       -0.0550008395
 C        -6.7750792809        3.5394444122        1.1078707725
 C        -7.9500306870        2.5128374173        1.3512786451
 O        -7.8114175001        1.4432413402        0.8144518599
 C        -9.1847338126        2.7818985991        2.3118696780
 C       -10.4869675151        2.4737361007        1.5067466820
 O       -10.4266621990        1.8296784594        0.5109874405
 C       -11.8406177750        3.0556693471        1.9451995877
 C       -12.6432002069        3.3035323297        0.6740641474
 C       -13.0155016424        1.8720869927        0.0919096914
 O       -13.1153117108        0.9530873729        0.8554012764
 C       -13.2156706359        1.6514264228       -1.4870736996
 C       -11.8132176501        1.1733380214       -1.9739754796
 O       -10.9682184091        2.0408218126       -2.2323383608
 C       -11.4560091278       -0.3293379793       -1.9369209546
 C       -11.1110977251       -1.0057155658       -0.5174501812
 C        -9.7959801281       -1.8263781216       -0.5973845793
 O        -8.8526375023       -1.2310990577       -1.0235221398
 C        -9.7177701770       -3.2645957984       -0.0793728786
 C       -10.4811681434       -4.0240724399       -1.2719691901
 O       -11.6697451492       -3.8909488570       -1.4406392210
 C        -9.7084173938       -4.8973252813       -2.1505508800
 C        -8.2195112268       -3.6482589890        0.0986910731
 C       -10.4481591618       -3.4819809352        1.2893336318
 C       -14.2512762152        0.5227531424       -1.7225068685
 C       -13.4235703073        2.9250624568       -2.2412114923
 C        -9.1593869628        1.7460365303        3.4572900140
 C        -9.1873198331        4.2089341411        2.8385541229
 C        -6.4362533932        4.6279523335       -3.8713979695
 C        -4.3842865502        4.0812394086       -2.6388052689
 C        -6.3717069117       10.3953096299        0.9671717147
 C        -6.4242967116        8.4303999650        2.6618140683
 C       -13.5720848945        9.6297471207        1.3541671686
 C       -13.9941839113        7.0964297066        1.7227872305
 H       -10.8859522959        8.9938804247       -0.3393479967
 H       -11.9426108504        9.5259087679       -1.5672517165
 H       -11.1081133084        8.0493567204       -1.8512974951
 H       -11.3775733604        8.9651993077        3.6360398815
 H       -11.0677576638       10.1331967504        2.3212891984
 H        -9.2882941986        7.6264617845        2.9099586097
 H        -8.9480509872        9.3432966424        3.6564523080
 H        -5.3798850790        8.4715418755       -0.8897655365
 H        -6.8970776991        9.0990027555       -1.3855060997
 H        -6.0803497886        7.5667967424       -2.9650348362
 H        -7.4486941972        6.7412149314       -2.1976654077
 H        -4.9258801043        3.6580110882       -0.0017972845
 H        -5.7173294157        2.0213315923        0.0680220586
 H        -7.1768347870        4.5449440054        0.8253142710
 H        -6.2494125659        3.6610891382        2.0228796882
 H       -11.5900538099        4.0257319296        2.3266582985
 H       -12.3928110568        2.5885351464        2.7022015234
 H       -12.1675522264        4.0080034070       -0.0192827946
 H       -13.5809609577        3.7752536851        1.0018430290
 H       -10.6472344974       -0.4427400881       -2.6793698584
 H       -12.3272313238       -0.7529291676       -2.4502364603
 H       -12.0659242834       -1.5638836848       -0.2134038219
 H       -11.0902163962       -0.2702355557        0.2158635396
 H        -8.9930929619       -4.3409604089       -2.7953414936
 H       -10.3399369971       -5.4945231299       -2.8321783731
 H        -9.1855955498       -5.5586834926       -1.5635343459
 H        -7.7923599624       -3.5846354209       -0.9205430379
 H        -8.1810814821       -4.6274917922        0.5387108562
 H        -7.6684095211       -2.9024962567        0.7751383491
 H       -11.5211921330       -3.6910875930        1.2037627137
 H       -10.3679871906       -2.6281789175        1.9961749854
 H        -9.9892379855       -4.2741013852        1.8372168213
 H       -15.2454552616        0.9224719821       -1.5032155592
 H       -13.9361808928       -0.1056274891       -0.9287716967
 H       -14.2667767091        0.2239150229       -2.7731005408
 H       -13.4649841220        2.7295860435       -3.3038870555
 H       -12.5203118265        3.4820415539       -2.1178515945
 H       -14.2359427090        3.5889881338       -1.9037731022
 H        -9.2569076794        0.7298052711        3.0118461079
 H       -10.0713037700        1.8526790908        4.0583578251
 H        -8.2873860074        1.9946579118        4.0994557233
 H        -8.4485082777        4.3530474777        3.5985541667
 H       -10.1118635777        4.3823457130        3.4171504582
 H        -9.1104052298        4.9738649905        2.1205861146
 H        -6.3806710202        3.6068003313       -4.2947147210
 H        -5.9340761203        5.3526162297       -4.4624007973
 H        -7.4721938710        4.9606792868       -3.8253467848
 H        -3.8088272921        4.1624147430       -1.7229728628
 H        -3.9789357088        4.6473174336       -3.3803173936
 H        -4.3068892759        3.0457481269       -3.0590196505
 H        -5.9879651807       11.0025030727        1.8819190662
 H        -7.1353874642       11.0548747809        0.5181923225
 H        -5.5174007374       10.3312504226        0.2277607859
 H        -6.7690278559        8.9395193822        3.5750010739
 H        -5.3144213618        8.6024111881        2.6623491886
 H        -6.4907841444        7.3085910673        2.7684697838
 H       -13.4996859769       10.0974933973        2.3210473163
 H       -14.5883715502        9.6485049138        1.0367178090
 H       -13.0350087109       10.2651407357        0.6431539616
 H       -13.6501478173        6.0871603158        1.3955845539
 H       -14.9099411691        7.4003425903        1.2565756118
 H       -14.0204561116        7.0585259177        2.8020214748
 Na       -8.9324821751        1.1805927180       -1.3518574062
