117

 C       -11.3243440717        8.7741985029       -1.0972744190
 C       -12.7646735451        8.1714313027       -0.7078579369
 O       -13.4581660957        7.6306307814       -1.5148006679
 C       -13.0695161101        8.3397044398        0.8539665132
 C       -11.7842528386        8.0497073316        1.6394919326
 O       -11.3351115480        6.9067226335        1.6065308516
 C       -10.9405354980        9.1073048177        2.4601483920
 C        -9.4277525474        8.6710774556        2.5800432444
 C        -8.5674848451        9.3223805726        1.5331128585
 O        -9.0088854317       10.1955837541        0.7829722377
 C        -6.9785735571        8.9079119670        1.5281946337
 C        -6.8916124117        7.6715311773        0.5104856062
 O        -7.2141815588        6.5782734856        0.9617635434
 C        -6.7233463017        7.9039288268       -1.0154817098
 C        -6.8752108620        6.5942763326       -1.9391482263
 C        -5.5616725822        5.8691591016       -1.9899117872
 O        -4.6035939583        6.1056264279       -1.2713111128
 C        -5.5774664593        4.4357208613       -2.6151644083
 C        -6.3899815331        3.5131782409       -1.6296329130
 O        -7.4034376648        2.9577255773       -2.0056430028
 C        -5.8254330443        3.2823476089       -0.2652839686
 C        -6.7341128711        3.6964552388        0.8983900408
 C        -7.7888286501        2.6693520571        1.2326179168
 O        -7.5710722386        1.4831442212        1.0077981757
 C        -9.0480920011        2.9846646050        2.2221864794
 C       -10.3458947436        2.6541338279        1.3541097855
 O       -10.3199177473        1.6127225237        0.6843046353
 C       -11.5734003578        3.4727171208        1.5181579301
 C       -12.5515173342        3.4333187470        0.3940356145
 C       -13.1289907819        2.0360440078        0.1796406682
 O       -13.5834949763        1.4398804727        1.1232940804
 C       -13.2376387281        1.4418981487       -1.2170001981
 C       -11.7877056158        1.0112753986       -1.6463097558
 O       -10.9204945887        1.8431179809       -1.6917430235
 C       -11.5057391210       -0.4704029258       -1.8746233023
 C       -11.4193140750       -1.2496871970       -0.5806282558
 C       -10.0057445570       -1.8061378903       -0.3978926033
 O        -8.9443937355       -1.2730975533       -0.8231140094
 C        -9.8764303283       -3.3130460767        0.0986501707
 C       -10.8046997667       -4.1342740990       -0.8860379565
 O       -11.9910578543       -4.1020265963       -0.7211385371
 C       -10.0444963128       -4.7581349338       -2.0735329043
 C        -8.4559976209       -3.7854066195        0.0139539613
 C       -10.5102476700       -3.4540219056        1.5274893023
 C       -14.2530283211        0.3142710427       -1.1583202406
 C       -13.6754810356        2.4378008670       -2.2449534976
 C        -9.2083031131        1.9826139823        3.4392788610
 C        -8.9938541841        4.4316426717        2.7723040583
 C        -6.2005535359        4.3354864355       -4.0199964316
 C        -4.1198272264        3.9550782611       -2.6289551483
 C        -6.2731336181       10.1693254035        1.0147451583
 C        -6.5316228203        8.5029355341        2.9851515056
 C       -13.5373182968        9.7955828899        0.9417657455
 C       -14.1907899079        7.4392290200        1.3269462669
 H       -10.6784147450        7.9662021219       -1.2749699771
 H       -10.9031138455        9.2614790079       -0.2575459836
 H       -11.2523943934        9.3729966493       -2.0115272088
 H       -11.3913833580        9.2649185925        3.3948031374
 H       -10.9849809732       10.1107782917        2.0976948875
 H        -9.2240173187        7.6076037946        2.4131047325
 H        -9.0607253879        8.9186756785        3.6220255228
 H        -5.7385800692        8.3390924750       -1.1921158742
 H        -7.4583778204        8.6327522328       -1.2744057282
 H        -7.0714351948        7.0410805292       -2.8993476033
 H        -7.6753519624        5.8832419808       -1.6137938940
 H        -4.8984841721        3.8225061431       -0.0247200878
 H        -5.5512778283        2.2552829267       -0.0860292674
 H        -7.1837520412        4.6418272264        0.7424993202
 H        -6.1531559726        3.8683306047        1.8250317180
 H       -11.2543019364        4.4632534187        1.7243737704
 H       -12.0060496124        3.1320857753        2.4542419995
 H       -12.1758874423        3.8654081467       -0.5086698444
 H       -13.3756783559        4.0727042615        0.6155045148
 H       -10.6052814523       -0.5122055675       -2.4807591257
 H       -12.2670715876       -0.8334914238       -2.5618551954
 H       -12.1436995304       -2.0193171395       -0.5237327536
 H       -11.5888243929       -0.5257264798        0.3162123185
 H        -9.3378789606       -4.0112962501       -2.3958295239
 H       -10.6493026045       -4.9345568617       -2.9084162600
 H        -9.4153733284       -5.6568138812       -1.8538537432
 H        -8.0384784575       -3.7007746169       -0.9399961530
 H        -8.3951404659       -4.8540688437        0.1819955309
 H        -7.8264963398       -3.2448540356        0.7159814073
 H       -11.5372631501       -3.1276863494        1.5560963440
 H       -10.0345687084       -2.8696302975        2.3193712256
 H       -10.6637741348       -4.5026389510        1.8108760664
 H       -15.2112495816        0.8395263684       -0.9654407931
 H       -13.9555571560       -0.3432395139       -0.3163258198
 H       -14.2234475833       -0.1817556205       -2.0787576400
 H       -13.8401294538        1.8978064283       -3.1855660401
 H       -12.9296016007        3.1962109351       -2.4181173198
 H       -14.6334551176        2.8895146300       -2.0685053894
 H        -9.0833281737        0.9657568472        3.0831563548
 H       -10.2755183261        2.1985118922        3.6580433797
 H        -8.5190511183        2.1277631450        4.2421269870
 H        -8.1522606396        4.4660982570        3.4187601405
 H        -9.9348470402        4.6166921826        3.4103010939
 H        -9.0352860004        5.2632638252        2.0480463015
 H        -5.9873026678        3.3727088056       -4.4595758475
 H        -5.8850158191        5.0416204674       -4.7887359829
 H        -7.2971656146        4.4916858800       -3.9475000822
 H        -3.7933174107        3.6058117432       -1.6854844193
 H        -3.4552782611        4.7962407458       -2.9215645443
 H        -3.9823199209        3.1499041288       -3.3909025625
 H        -5.9218400032       10.7854572752        1.8562980839
 H        -6.9061883402       10.7666453813        0.2685520571
 H        -5.3294517468        9.8658690502        0.5290745474
 H        -6.9663621008        9.2213639116        3.7315440332
 H        -5.4574120764        8.4697123076        3.1918970668
 H        -6.9453227104        7.4760849347        3.2782167083
 H       -13.1389134365       10.4069377945        1.7520151755
 H       -14.6368404225        9.8663108541        0.9682118888
 H       -13.2623062650       10.3136085981        0.0416473488
 H       -13.7859604800        6.4531081820        1.2345664041
 H       -15.0679918625        7.6300880959        0.7009634345
 H       -14.5216697712        7.7116114301        2.3510948856
 Na       -8.8376361880        1.2201716500       -0.9724951983
