117

 C       -11.3533634760        8.8264476645       -1.4369456551
 C       -12.6494945989        8.2679582949       -0.8524591825
 O       -13.3971780703        7.4765087711       -1.4423962430
 C       -12.9385217392        8.4541453032        0.7104130164
 C       -11.7451059314        8.0599037943        1.5505422370
 O       -11.4492289859        6.8660534488        1.5331021035
 C       -10.9716055827        9.0668651528        2.2590382036
 C        -9.5342665881        8.7381181565        2.5640489659
 C        -8.5226831454        9.4956940005        1.5856901690
 O        -8.9660098912       10.2400470945        0.7942556178
 C        -6.9744682081        9.0047160582        1.5522303249
 C        -7.0548125331        7.7327697545        0.5608469797
 O        -7.3153014980        6.6575608068        1.0095271483
 C        -6.8118862559        7.8873108231       -0.9511134491
 C        -6.9628356431        6.5863803211       -1.7381919763
 C        -5.5678424525        5.7392863447       -1.7833721310
 O        -4.5609222135        6.2870345257       -1.4704951257
 C        -5.5821220112        4.3053979817       -2.6031187965
 C        -6.2463390627        3.2986831795       -1.5892793753
 O        -7.2809086016        2.7298655278       -1.9547247025
 C        -5.7515926388        3.1671288687       -0.1462608637
 C        -6.9212398369        3.6487365377        0.7789953562
 C        -7.7636461430        2.5231990083        1.4488733919
 O        -7.4659360463        1.3236330074        1.3148992426
 C        -8.9539701552        3.0016405793        2.3399006077
 C       -10.2714532707        2.6901061788        1.5050505055
 O       -10.3742655460        1.7064904188        0.7635706534
 C       -11.5628499919        3.6503584092        1.5147335209
 C       -12.3586686076        3.4438691552        0.1881531998
 C       -13.1229028119        2.1511899224        0.1295590181
 O       -13.5489590665        1.7185698687        1.1973029968
 C       -13.3991552792        1.4566024161       -1.2247298316
 C       -11.9866685118        0.9644005681       -1.6727275295
 O       -11.1098778566        1.8362995758       -1.8780710474
 C       -11.6517677834       -0.5290455009       -1.7825189653
 C       -11.4180666408       -1.1438237279       -0.3770131911
 C        -9.9592385666       -1.7990739662       -0.4552382077
 O        -8.9846838127       -1.2602602117       -0.8880582201
 C        -9.8795126557       -3.2924423682        0.0913497913
 C       -10.8265430615       -4.3008207896       -0.8722905493
 O       -12.0198265275       -4.2581349999       -0.6314906365
 C       -10.2749445788       -4.8891767377       -2.2049048452
 C        -8.4131488914       -3.6852180290        0.2759300817
 C       -10.4892245246       -3.3127883041        1.5157847981
 C       -14.3666709203        0.2653758020       -1.0842902555
 C       -13.9808140239        2.3863946976       -2.3494355217
 C        -9.0362267631        2.0342286700        3.5532320457
 C        -8.8573041324        4.5297014492        2.7142296933
 C        -6.2818822965        4.3386719864       -3.9190241839
 C        -4.0587525980        3.9342846885       -2.8916783737
 C        -6.0719773720       10.0873028017        0.9821786897
 C        -6.4783234184        8.5612804996        2.9081442520
 C       -13.4192145296        9.8410584424        1.0172804523
 C       -14.1955585453        7.4365004494        1.0798146871
 H       -10.9654756613        8.0604907549       -2.1735316659
 H       -10.5460615830        9.0265576283       -0.6921920398
 H       -11.5625042821        9.6877578007       -2.0489575470
 H       -11.5565451061        9.3528117782        3.1912682303
 H       -10.9970159559       10.0545336711        1.7315307095
 H        -9.3356411142        7.6709335204        2.5491495205
 H        -9.3279425888        9.0705177564        3.5252305637
 H        -5.7706275032        8.2088683327       -1.1298055525
 H        -7.4890273768        8.7103088920       -1.3084006656
 H        -7.2308668794        6.9794496284       -2.7336416487
 H        -7.7105211391        5.9424954208       -1.3212169410
 H        -4.8632212722        3.7482852995        0.0429355350
 H        -5.4735417268        2.1586731043        0.1603627368
 H        -7.5419652851        4.4054814261        0.2140303131
 H        -6.6144250575        4.1841716635        1.7163539293
 H       -11.2016406430        4.7163264997        1.6691162417
 H       -12.2906599678        3.4334104077        2.3473094969
 H       -11.8171097004        3.5899044344       -0.7693290424
 H       -13.1786455795        4.2170359020        0.1163445200
 H       -10.7658429314       -0.5574632365       -2.4287716052
 H       -12.4384848992       -1.0568762025       -2.3495302603
 H       -12.1037556548       -2.0464966373       -0.2740168251
 H       -11.5883782557       -0.4283641990        0.3760634584
 H       -10.1180780106       -4.1410243044       -2.9818653827
 H       -11.0302448933       -5.5854550129       -2.6209003408
 H        -9.3190609900       -5.3918045744       -2.0962964027
 H        -7.9274876104       -3.8650088704       -0.7252027638
 H        -8.2662197151       -4.6288828594        0.8198849310
 H        -7.7884621357       -2.9233467998        0.7042458084
 H       -11.5827768285       -3.3220292981        1.6495365939
 H       -10.1545678695       -2.4705512130        2.1081502421
 H       -10.1793059975       -4.2349693527        2.0123518305
 H       -15.2431824198        0.6783042393       -0.6691906686
 H       -13.9764549080       -0.4673324172       -0.3889349878
 H       -14.4300698114       -0.2248403876       -2.0934193325
 H       -14.3245671920        1.9281239003       -3.2470315914
 H       -13.3152741276        3.2167121516       -2.6190058811
 H       -14.8927244753        2.8232095242       -1.9342159769
 H        -8.8672466002        1.0479643404        3.1800128084
 H        -9.8544394245        2.2792405812        4.1706820865
 H        -8.1172928319        2.2614286334        4.1167779417
 H        -7.8266054626        4.8258690774        3.1226414187
 H        -9.5695133696        4.7225255174        3.4719910034
 H        -9.1392340508        5.1693906353        1.8452160644
 H        -5.9807154361        3.4961640372       -4.5972408924
 H        -5.8966835565        5.2191732423       -4.4983691778
 H        -7.3840271412        4.4090835663       -3.9211592145
 H        -3.4739631803        3.7403727826       -1.9465864322
 H        -3.5766654947        4.7545670111       -3.4530371538
 H        -4.0227497260        3.0763005699       -3.5006494250
 H        -5.6548781786       10.6248663348        1.7829679315
 H        -6.7210463598       10.7107004176        0.4596060067
 H        -5.2980168794        9.7122570199        0.3494356325
 H        -6.3966879795        9.3664990005        3.6071083497
 H        -5.4802184730        8.1541104350        2.7516668945
 H        -7.0630949782        7.8441838039        3.3724963159
 H       -13.7246657585        9.9620394314        2.0702898156
 H       -14.2470002000       10.1327844957        0.3671823302
 H       -12.6307529292       10.6172328624        0.8072242647
 H       -13.8209071788        6.3866945499        1.0135007090
 H       -14.9336955854        7.6045966901        0.2741208493
 H       -14.6948560650        7.7395142433        1.9895193151
 Na       -8.6427947901        1.0884570585       -0.8945583344
