117

 C        -1.2695471466        6.8791777416        2.1763344193
 C        -1.4153799353        8.1751839935        2.9487165239
 O        -0.8442467341        8.3796456626        3.9897014809
 C        -2.4566026442        9.1091911812        2.2769300237
 C        -3.8523487379        8.3557386860        2.2567794115
 O        -4.2546556021        7.9383978498        1.1916640824
 C        -4.6772082271        8.1486326983        3.6090176830
 C        -5.7034512072        6.9923905760        3.3486829567
 C        -7.1673995924        7.3595276639        3.3014192249
 O        -7.6582686604        8.4121411042        2.9142898032
 C        -8.2088258494        6.1831845129        3.6697140818
 C        -9.5344381472        6.5285212723        2.8538995928
 O       -10.4910636010        6.9307353993        3.4755812097
 C        -9.4967878516        6.4010872897        1.3246308723
 C       -10.9442213463        6.5781845173        0.7229970400
 C       -11.7377993524        5.2960446286        0.9226182320
 O       -11.1046915639        4.2244450077        0.8634272037
 C       -13.3280498364        5.1080543958        1.1269993512
 C       -13.9308327253        4.1473164407       -0.0724253834
 O       -13.2646817439        3.8994543028       -1.1149008377
 C       -15.3952953752        3.8064977866       -0.1696870080
 C       -15.5113187027        2.3368094701       -0.8255279875
 C       -14.5473235263        1.3960494261        0.0768800975
 O       -13.7774151112        1.9023613955        0.8793744774
 C       -14.5030336584       -0.0827268147       -0.1375045654
 C       -13.5605178221       -0.2430862124       -1.3925961701
 O       -12.5431433639        0.3874542378       -1.5485578105
 C       -13.8463483924       -1.3068339844       -2.4836895351
 C       -12.8651116053       -1.2823835958       -3.7217239401
 C       -12.9886328158        0.0215127407       -4.5047102528
 O       -14.0103866272        0.6238066305       -4.5933175267
 C       -11.6896359223        0.3655971288       -5.2789747414
 C       -10.4990324478        0.8234021952       -4.2870610138
 O       -10.1876704958        0.1375087602       -3.3400381305
 C        -9.6338263608        2.0095578029       -4.6621298670
 C        -8.4211584644        2.2788108074       -3.7231640040
 C        -8.9411679615        2.1998687721       -2.2684841324
 O       -10.0074170295        2.6959467829       -1.9007747651
 C        -8.0251789392        1.3885954826       -1.1576684384
 C        -8.8251097047        0.1845920070       -0.5524709430
 O        -9.7843788366        0.3686613741        0.1489586603
 C        -8.4260717145       -1.2945691544       -1.0082088650
 C        -6.6342055725        1.0716253505       -1.7115214387
 C        -7.9438680250        2.4315084880        0.0446217224
 C       -11.0843735036       -0.8815081460       -6.0706460889
 C       -12.0259991098        1.3917949149       -6.3652292012
 C       -13.9628413233       -0.7406550973        1.1116131054
 C       -15.9059230139       -0.5380250491       -0.3911522556
 C       -13.4130514539        4.5466898469        2.6156785209
 C       -14.0994974350        6.3629074968        1.2211232094
 C        -7.6064262710        4.8142949502        3.3546903160
 C        -8.4525184936        6.2621294984        5.2308142929
 C        -2.5460672651       10.4369528792        3.1273489928
 C        -1.9481176925        9.4280689112        0.8261932173
 H        -1.7759030259        6.0410834699        2.7184177165
 H        -0.2648129788        6.5760326569        2.3652114724
 H        -1.4816156654        6.8969547277        1.0922311884
 H        -5.2601356919        9.1065041827        3.6933373919
 H        -4.0952938414        7.9881916131        4.5044414348
 H        -5.5004952995        6.1221299911        4.0678743978
 H        -5.3919727131        6.6291495994        2.3160759718
 H        -9.0758537913        5.3939687439        1.1051584862
 H        -8.8810008490        7.1945554015        0.9657919301
 H       -10.8602234644        6.8954948725       -0.3374291984
 H       -11.4171156789        7.4349776413        1.2987538750
 H       -15.8412233909        4.4988088715       -0.9087756865
 H       -15.8948251797        3.8449375147        0.7637330448
 H       -15.2855204585        2.3229432998       -1.9502729932
 H       -16.5091560365        1.9925815274       -0.6067479227
 H       -14.8505824106       -1.1177842393       -2.8507539180
 H       -13.8795555948       -2.3089140864       -2.0877661077
 H       -13.0849644760       -2.1333691799       -4.3095509660
 H       -11.8791911559       -1.4647484996       -3.3937099846
 H       -10.3192178668        2.8711380094       -4.5421169363
 H        -9.4723473532        1.9583443245       -5.7397414632
 H        -7.9870735563        3.3116696581       -3.8482116244
 H        -7.6251695991        1.5832452525       -3.9388617691
 H        -8.3254504305       -1.1622378707       -2.0404417832
 H        -9.2387992854       -2.0300313503       -0.7580309666
 H        -7.4836954219       -1.4480842915       -0.5753053981
 H        -6.1361081050        1.9554431528       -2.1544371689
 H        -6.7192789325        0.2877197514       -2.4575748866
 H        -6.0047896779        0.7993424049       -0.8672498948
 H        -8.9271365155        2.7178591925        0.3845529659
 H        -7.3219912299        3.2528255298       -0.2750204246
 H        -7.4250027389        1.9559298329        0.8744359137
 H       -11.5071276952       -1.2635798154       -6.9640512489
 H       -10.9709965441       -1.7716175117       -5.4031637468
 H       -10.0575490706       -0.5987024627       -6.3036053725
 H       -12.3833274588        2.3813207913       -6.0450731150
 H       -12.7172119641        0.9942325087       -7.0470400418
 H       -11.0989092781        1.6072050135       -6.8956511442
 H       -14.6392607960       -0.6104100027        1.9328896718
 H       -13.0415573602       -0.2142482724        1.3393728465
 H       -13.7587489651       -1.8073870884        1.0356328318
 H       -16.4806731505       -0.3569551488        0.5289131631
 H       -15.8549435689       -1.6434024017       -0.5981517125
 H       -16.5271466439       -0.0053786413       -1.0991211338
 H       -14.4611021445        4.2767833055        2.8602467183
 H       -13.1327798977        5.2859719206        3.4380058292
 H       -12.8312591088        3.7165599219        2.7207740597
 H       -14.2142254149        6.8267240524        0.2234353116
 H       -13.5107342761        7.0617905926        1.8558853465
 H       -15.0862593644        6.2074046048        1.6417063262
 H        -6.8727670381        4.5813317876        4.1424855014
 H        -7.2661241288        4.7492785960        2.3193699411
 H        -8.4521788122        4.0934044031        3.4761277634
 H        -8.3821286424        5.3130880529        5.7226247099
 H        -9.4962200712        6.4545314648        5.4480938319
 H        -7.8653533296        6.9573725194        5.8599874562
 H        -3.4695458137       10.3498226318        3.6552947878
 H        -2.6580036470       11.2180382563        2.3770593662
 H        -1.7308408375       10.5355742946        3.7677894396
 H        -1.3782349675        8.6510716558        0.3739251737
 H        -1.5237946925       10.4222167841        0.7569424303
 H        -2.7860352231        9.4904245108        0.1881023979
 Na      -11.5149616076        1.9629472308       -0.0029121476
