117

 C       -11.6577603720        9.2204635587       -1.7645962590
 C       -12.5766791357        8.2263045546       -1.0811499035
 O       -12.8829304121        7.2121598519       -1.6889203873
 C       -12.9875377591        8.5186449673        0.4963691217
 C       -11.6644223076        8.1639269772        1.3255118942
 O       -11.2605024616        7.0305418131        1.3460946845
 C       -10.9494907596        9.2319914149        2.0410062100
 C        -9.4720529307        8.8411465093        2.4380482813
 C        -8.4589253496        9.5175332989        1.5096268581
 O        -8.7967160500       10.3378470276        0.7139798254
 C        -6.9409614381        8.9914595355        1.5033997287
 C        -7.0464869389        7.6505216978        0.5958644170
 O        -7.5433669638        6.7070216489        1.1195008460
 C        -6.7799568153        7.7384060276       -0.9820868972
 C        -7.1130155396        6.4100567051       -1.7084245928
 C        -5.7905817988        5.6080449241       -1.8563522451
 O        -4.7286025735        6.0846451036       -1.5703673267
 C        -5.8365153064        4.1677590970       -2.5488415823
 C        -6.3952046842        3.0915338557       -1.5102821031
 O        -7.2207779905        2.2699561812       -1.9442999392
 C        -5.8068289282        2.9769961284       -0.0266833502
 C        -6.7134660049        3.6884381908        1.1017356084
 C        -7.7279694242        2.6709343425        1.6012747511
 O        -7.6388609051        1.4544726896        1.2965602194
 C        -8.9446770836        3.0339702189        2.4660278073
 C       -10.1349105967        2.7660377381        1.5746973184
 O       -10.1100574676        1.7409790277        0.8498386371
 C       -11.3090478741        3.7977464274        1.4022621076
 C       -12.0161241698        3.5477569966        0.0488897847
 C       -13.0246474874        2.3734484583        0.1927115881
 O       -13.4943197683        2.0455609316        1.2500475902
 C       -13.3324766577        1.4913380367       -1.1624977865
 C       -12.0006933285        0.9055770416       -1.5874614543
 O       -11.0790760766        1.6495605943       -2.0451416561
 C       -11.8673623191       -0.6525519878       -1.7214293762
 C       -11.4256565228       -1.1828342082       -0.3238469186
 C        -9.9929716572       -1.8512604237       -0.3965312363
 O        -9.0492200892       -1.2898835879       -0.8803409324
 C        -9.8766535058       -3.2787408568        0.2005548526
 C       -10.8405841697       -4.3173505225       -0.7098895464
 O       -12.0092687078       -4.3988841767       -0.4312016279
 C       -10.2669951855       -4.9707810502       -1.9695866011
 C        -8.3825282949       -3.7729012977        0.2371998147
 C       -10.3538057484       -3.2467316678        1.6530287426
 C       -14.5430289560        0.5221983688       -0.8491463911
 C       -13.8331107167        2.5300072932       -2.1505814877
 C        -9.2046052002        2.0472781052        3.6700031902
 C        -8.9262985755        4.5100567276        3.0212195708
 C        -6.6075286461        4.2235610577       -3.8907550762
 C        -4.3412955617        3.6739322284       -2.8301078190
 C        -5.9398464345       10.0678240681        0.9010077073
 C        -6.4461467744        8.7512680896        2.9576477925
 C       -13.4475722385        9.9601031064        0.6233331882
 C       -13.9878614876        7.5288395702        0.9663714708
 H       -11.8084349559        9.1050381952       -2.8339947298
 H       -10.6044092221        9.0893488061       -1.5443112111
 H       -11.9972002099       10.1693044537       -1.5016828551
 H       -11.4834728309        9.4781614021        2.9680768142
 H       -10.9681463574       10.1457509999        1.4502002043
 H        -9.3966432992        7.7889793825        2.2525614982
 H        -9.3309013023        8.9473867821        3.4468119381
 H        -5.7468822495        8.0646984475       -1.0106465927
 H        -7.4161060287        8.5968589066       -1.2860939955
 H        -7.4574504164        6.6788516560       -2.7299055647
 H        -7.8812729808        5.9586003382       -1.1273049024
 H        -4.8826356458        3.5043428641        0.1592112212
 H        -5.7009521317        1.9541957293        0.2482748329
 H        -7.2514054716        4.6260931662        0.8186258256
 H        -6.0754919910        3.8807715841        1.9953004270
 H       -10.8475305979        4.8183812226        1.2670063229
 H       -11.9121092614        3.8331205234        2.3363752845
 H       -11.2849522752        3.4216419718       -0.7320572699
 H       -12.5948845134        4.4591098808       -0.1830840555
 H       -11.1804228041       -0.9606717741       -2.5003148660
 H       -12.8333509982       -1.1321438301       -1.8916506386
 H       -12.1506760429       -1.9716332037        0.0019481294
 H       -11.3005947680       -0.3706292869        0.3651188626
 H       -10.7938009137       -4.7240044377       -2.8508285548
 H       -10.3523624109       -6.0301394663       -1.8474659319
 H        -9.1585574833       -4.7416543590       -2.1667916373
 H        -7.7806870326       -3.3180193889       -0.5143521712
 H        -8.3037915926       -4.8505416604        0.2088587386
 H        -7.8700554621       -3.6011172283        1.0902260355
 H       -11.4101410328       -2.9479955119        1.7799747576
 H        -9.7971228969       -2.6166973419        2.3172109211
 H       -10.1959305461       -4.2411800640        2.1105137618
 H       -15.3386034357        1.1059123853       -0.4698984254
 H       -14.3538465887       -0.2914610717       -0.1654390896
 H       -14.7576417370        0.1505436377       -1.8779889670
 H       -14.2859202224        2.1757190190       -3.0423289695
 H       -13.0286061204        3.2085792387       -2.4863717132
 H       -14.5633514440        3.1231191234       -1.6266047642
 H        -9.0790240477        1.0961875403        3.2310229522
 H       -10.1233980599        2.2758619851        4.1311162734
 H        -8.4775345871        2.2968420329        4.4375611315
 H        -8.0670621766        4.8307609910        3.6972443384
 H        -9.7755322634        4.5281650475        3.6646839373
 H        -8.9111964405        5.2442186139        2.1512538779
 H        -6.5064163617        3.3540726272       -4.5025690159
 H        -6.1486005848        5.0597981162       -4.4686909991
 H        -7.6801151100        4.2792879409       -3.9078866483
 H        -3.7340881788        3.8577775199       -1.9164124365
 H        -3.8305401281        4.1784485028       -3.7366797802
 H        -4.3703368110        2.6442789542       -2.9203334386
 H        -6.1630376965       11.0439169603        1.2213937337
 H        -6.0599612556       10.0691401436       -0.1896001968
 H        -4.9545589497        9.6847931267        1.1222984969
 H        -6.7427001337        9.5778384863        3.6744217280
 H        -5.3272644331        8.6849214176        2.8717243330
 H        -6.8227549280        7.8386468873        3.3978426683
 H       -13.6538775395       10.2062681378        1.6602856674
 H       -14.4142588325       10.0861558632        0.1563946727
 H       -12.8032857360       10.7275577168        0.1865327202
 H       -13.5739456165        6.5364737691        0.6748443585
 H       -14.9435432773        7.5982150987        0.4161427132
 H       -13.9589593929        7.5939386671        2.0502234187
 Na       -8.9059598814        1.0743993707       -1.0630699204
