117

 C       -11.7876841807        9.2724457604       -1.9666070103
 C       -12.4184559252        8.2332235974       -1.0878870427
 O       -12.6500322995        7.1175443939       -1.5313687620
 C       -12.8780631917        8.5595548558        0.3846644300
 C       -11.5804128689        8.2293633704        1.1643419778
 O       -11.1187502495        7.0783334979        1.1088927555
 C       -10.9124839258        9.3616576489        1.9482068045
 C        -9.4613786571        9.0527276433        2.2817928870
 C        -8.4124280514        9.6811224526        1.3512568492
 O        -8.7356820739       10.5010674968        0.5194811846
 C        -6.9776946753        8.9886534091        1.4361347467
 C        -7.0535039112        7.6450491378        0.6231365110
 O        -7.4603132637        6.6427683401        1.2223713598
 C        -6.7355806421        7.6850417705       -0.9797099135
 C        -7.0572255123        6.3691695918       -1.7154268713
 C        -5.8045068383        5.5050219779       -1.8358342099
 O        -4.7348131423        5.8470812564       -1.3821719250
 C        -5.9079920603        4.1098958938       -2.4907978368
 C        -6.5120130826        3.1276293799       -1.4092779878
 O        -7.5255127156        2.4883862123       -1.6935093476
 C        -5.7099982410        3.1596432694       -0.0666419827
 C        -6.5831941187        3.5922919767        1.1399182874
 C        -7.7781780901        2.5566459777        1.4999424806
 O        -7.6476486682        1.4122917590        1.1979004625
 C        -8.9102513238        2.9728744075        2.4381280944
 C       -10.2397067662        2.8993715430        1.4911488979
 O       -10.3282048358        1.8725583928        0.8896451281
 C       -11.2412306877        4.0353400706        1.3365795536
 C       -12.1390356801        3.7706460196        0.0762587007
 C       -13.0006412207        2.4585156617        0.1519543830
 O       -13.3468110935        2.0106933503        1.2312127871
 C       -13.2865217164        1.6017747294       -1.1524094979
 C       -11.9665044092        0.8606660087       -1.4814257005
 O       -11.0853118766        1.5842571688       -1.8581674398
 C       -11.8796093792       -0.6349317439       -1.5906902109
 C       -11.5050363353       -1.3409523143       -0.2577320800
 C       -10.0828094203       -1.9473957412       -0.2742135329
 O        -9.1812830450       -1.3458134649       -0.8832651116
 C        -9.8075247130       -3.2967273443        0.2831556241
 C       -10.8032497955       -4.1663903616       -0.6326420305
 O       -11.9643073309       -4.2879593449       -0.3017487902
 C       -10.2094753553       -4.9433700613       -1.7997437106
 C        -8.3660486532       -3.7025789037        0.1487710141
 C       -10.3534193178       -3.4776495405        1.7140105716
 C       -14.4078017871        0.6178567893       -0.8401441218
 C       -13.6019160188        2.6231254673       -2.2675826720
 C        -9.1457744297        1.9610654469        3.5694880738
 C        -8.7712155746        4.3341882613        3.0753482309
 C        -6.7572139989        3.9032572120       -3.7611660501
 C        -4.4918701863        3.6425955967       -2.8751777056
 C        -6.0582952705       10.0465523475        0.7917708085
 C        -6.6013416965        8.6067125300        2.8902534188
 C       -13.5107048953        9.9768896224        0.7597609533
 C       -13.9917478682        7.4959551732        0.6769123043
 H       -11.7824324424        8.7400209284       -2.9434573098
 H       -10.7262378346        9.3358373870       -1.6222073758
 H       -12.2439107293       10.3092691816       -2.0229911867
 H       -11.4121764778        9.5300975775        2.9321400629
 H       -10.8909919105       10.3747216996        1.4127509079
 H        -9.2843279703        7.9819944258        2.4813178283
 H        -9.3513876145        9.5456123405        3.3194683387
 H        -5.6724853081        7.9883358314       -1.0496457322
 H        -7.3421138129        8.5140708437       -1.3357201670
 H        -7.5136390046        6.6445848173       -2.6531640487
 H        -7.8291998139        5.8011586623       -1.1056161856
 H        -4.9213448781        3.8897318305        0.0068207275
 H        -5.3623747350        2.1130160083        0.1919647832
 H        -7.0613467758        4.5568297224        1.0182827705
 H        -5.9737619095        3.5977446368        2.0516724309
 H       -10.7222478403        4.9840912898        1.3604899667
 H       -11.8927405023        4.0111021606        2.2351664212
 H       -11.4740408389        3.5791668501       -0.8224796853
 H       -12.7418998427        4.6865087238       -0.0729907643
 H       -11.0683241091       -0.9320875612       -2.3054950224
 H       -12.8398934005       -1.0085501273       -1.9585826278
 H       -12.1786719167       -2.1240252151        0.0341979319
 H       -11.3315734638       -0.5656419308        0.5016813619
 H       -11.0395384385       -5.2156416236       -2.5136179799
 H        -9.7562688142       -5.9215174171       -1.5052965254
 H        -9.4886775659       -4.4301018962       -2.3338070307
 H        -8.0741379851       -3.7413959140       -0.9249446750
 H        -8.2039949818       -4.6869778660        0.5797465942
 H        -7.5269492363       -3.1329434261        0.6700037444
 H       -11.3800807153       -3.1501936902        1.7422975277
 H        -9.8413174314       -2.9643703070        2.5481155152
 H       -10.3108065319       -4.4910706952        2.0385803211
 H       -15.2952928547        1.2424806700       -0.5098992558
 H       -14.0794835496        0.0462563635        0.0391022710
 H       -14.7344217855       -0.0065398990       -1.6777700314
 H       -13.9617755958        2.0441854191       -3.1362261218
 H       -12.7553474680        3.1539579324       -2.6297380678
 H       -14.3513682664        3.3787032699       -1.9937608443
 H        -8.9784425315        0.9691477360        3.1220199009
 H       -10.2213502473        2.0581526203        3.8116760028
 H        -8.5613880998        2.2851046445        4.4123239416
 H        -7.9162693173        4.3142255569        3.7055566754
 H        -9.6070087889        4.4731503766        3.7782216684
 H        -8.5540094854        5.1023238592        2.4051579924
 H        -6.8193948462        2.8177609582       -4.0374085057
 H        -6.5299174383        4.4567013117       -4.6542592622
 H        -7.8344091879        4.0548117890       -3.5232813446
 H        -3.9092508599        3.4045370920       -1.9909956566
 H        -4.0315269386        4.4134644089       -3.3764806079
 H        -4.5285078394        2.7124977001       -3.5215464437
 H        -5.6399571638       10.6889397748        1.5707952561
 H        -6.6235365303       10.6478419942        0.1673826012
 H        -5.3133547238        9.5350583171        0.2212415588
 H        -6.6714145444        9.3801013405        3.5876804892
 H        -5.6283059189        8.1839377741        2.9170011483
 H        -7.2697514243        7.7895292493        3.1599985092
 H       -13.7392406972       10.0442123262        1.8376921449
 H       -14.4626246521       10.2139696003        0.2543704854
 H       -12.8321420954       10.8095127777        0.5189317165
 H       -13.6213714041        6.4563049420        0.6977295068
 H       -14.5847654155        7.5779429841       -0.2103779009
 H       -14.4394561994        7.7001907913        1.6536351059
 Na       -9.0459433611        0.9758570615       -1.0001449704
