117

 C       -11.9956409509        9.4396725104       -1.9430459766
 C       -12.4650209791        8.1885707910       -1.1625583056
 O       -12.3408450925        7.1334735702       -1.7164515505
 C       -12.8955213056        8.4839919659        0.2639726834
 C       -11.5228401638        8.3160380649        1.0831011113
 O       -10.9188079905        7.2808958626        1.0708051785
 C       -10.9537978131        9.5133484667        1.8667385696
 C        -9.4682820645        9.2618240490        2.3296768718
 C        -8.4565870822        9.5957869657        1.2630278060
 O        -8.7587270644       10.4464500373        0.3807892327
 C        -7.0013890063        8.9905471561        1.2945919915
 C        -7.1092456248        7.6053894573        0.4541171582
 O        -7.3767146602        6.5708063296        1.0382417353
 C        -6.7539733649        7.7041796589       -1.0960059595
 C        -7.0494773172        6.3257296014       -1.6947265978
 C        -5.8076633038        5.4196720825       -1.7915439586
 O        -4.7430818295        5.7515929883       -1.2759411566
 C        -5.9489578903        4.0844264234       -2.4171142176
 C        -6.5623434826        3.1202919552       -1.2236827244
 O        -7.7026410348        2.7604605400       -1.3098674699
 C        -5.7509007329        2.9073407844        0.0401152722
 C        -6.6166855157        3.5099996138        1.1942559938
 C        -7.7267259219        2.5029965995        1.4409143615
 O        -7.7107481819        1.3455770895        1.0152677324
 C        -8.9074542651        2.8786939378        2.3056701690
 C       -10.1729544867        2.8848003417        1.3453100150
 O       -10.6077653794        1.8588360626        0.8308165237
 C       -11.1766496132        4.0521145507        1.2829603854
 C       -12.2378250819        3.8926474091        0.1866084211
 C       -12.8742036526        2.5298005708        0.2929899797
 O       -13.2127003716        2.0385982192        1.3246254495
 C       -13.2090730253        1.7597117584       -1.1593538625
 C       -11.9559362453        0.9539114696       -1.4967428608
 O       -10.9224728223        1.5469410443       -1.8454795410
 C       -11.8739467748       -0.5927060196       -1.4782123230
 C       -11.4395150300       -1.1928892684       -0.1230679307
 C       -10.1511213650       -1.9834077043       -0.1754678603
 O        -9.2476230987       -1.4059499757       -0.6934128580
 C        -9.8549162533       -3.3199461341        0.3399111240
 C       -10.8231045132       -4.2715063551       -0.5762178511
 O       -12.0209930759       -4.3229488212       -0.3874226486
 C       -10.2120399720       -5.0779908846       -1.7121006911
 C        -8.3458642972       -3.6540137196        0.1403087526
 C       -10.1729338312       -3.5289751586        1.8775094400
 C       -14.4282483034        0.9492909733       -0.8740299856
 C       -13.6531327870        2.6668498720       -2.3920924210
 C        -9.1205245615        1.7187548058        3.3715844727
 C        -8.7550439182        4.1922698422        2.9514470076
 C        -6.9613091759        4.1349374486       -3.5471675049
 C        -4.5826667037        3.5135604578       -2.9186064202
 C        -5.8764406871        9.9145879690        0.7296450353
 C        -6.6102164027        8.6727017151        2.7524996600
 C       -13.3922046046        9.9216194448        0.3265027612
 C       -14.0338790329        7.4529837826        0.7895103793
 H       -11.5736270936        9.2136160667       -2.8915895694
 H       -11.3749006537       10.0743290621       -1.3217173431
 H       -12.9336248754        9.9442532053       -2.0650385480
 H       -11.5780417559        9.5072994213        2.7472032953
 H       -10.9490223061       10.4601860998        1.4173626261
 H        -9.4071658096        8.1689689165        2.5927225253
 H        -9.2021432072        9.7662060055        3.2342760231
 H        -5.7032165448        7.9119207470       -1.1655440171
 H        -7.2834021735        8.5779398674       -1.4737338705
 H        -7.6052274795        6.4945160904       -2.6512376215
 H        -7.6999727018        5.7043204524       -1.0848075392
 H        -4.8787442612        3.5972823217        0.0251669087
 H        -5.5549928170        1.8832593396        0.2135907176
 H        -7.0991986294        4.4329878269        0.8761382662
 H        -6.1804015219        3.6148916930        2.1979520719
 H       -10.6303454231        4.9929264124        1.1897394410
 H       -11.6971879355        4.1124471001        2.2210446208
 H       -11.8094722242        4.0268171987       -0.7567408859
 H       -13.0195660812        4.6093636178        0.4016128311
 H       -11.1321919868       -0.9260427495       -2.1748605802
 H       -12.8429963517       -1.0461973459       -1.7284855495
 H       -12.1931468158       -1.8257804396        0.3822216995
 H       -11.1593073659       -0.3389341734        0.5316855565
 H       -10.7294229316       -5.9789346134       -1.8753279768
 H        -9.2109619265       -5.3395787702       -1.4692194605
 H       -10.1295466581       -4.5253113815       -2.7041177585
 H        -8.0472235590       -3.6194102225       -0.8904486276
 H        -7.9626992390       -4.5955476321        0.5880097972
 H        -7.7367621495       -2.9409408367        0.6302294675
 H       -11.2226328977       -3.4559358431        2.1483761027
 H        -9.6488730655       -2.8535181007        2.5064711059
 H        -9.8236103980       -4.5245309316        2.2196482145
 H       -15.2530937225        1.6049664782       -0.6246052016
 H       -14.1782815708        0.2454286439       -0.0511689892
 H       -14.7913058746        0.4416484099       -1.7761699402
 H       -13.9028293973        2.1530178880       -3.3159966046
 H       -12.9563105608        3.5182405461       -2.6260509391
 H       -14.5030717866        3.2190138301       -2.0165791476
 H        -9.6207639322        0.8680130141        2.8919446473
 H        -9.8221268230        2.0983945077        4.1358624017
 H        -8.0888670148        1.6555683763        3.7750324674
 H        -7.8024342286        4.2949941069        3.4661981671
 H        -9.6105818763        4.4270861102        3.5959532259
 H        -8.6738016115        4.9713277876        2.1658841261
 H        -7.2509352822        3.1756094780       -3.8802591432
 H        -6.5555205354        4.6127319039       -4.4385163059
 H        -7.8387618120        4.7231084113       -3.3242308809
 H        -3.9483207523        3.3953128960       -2.0629553236
 H        -4.0871939303        4.2197172261       -3.6473234187
 H        -4.7362644959        2.5796298426       -3.4369091000
 H        -5.5437683523       10.6011046547        1.5270215433
 H        -6.3434777053       10.5435939068       -0.1448907984
 H        -5.0375324520        9.2730960299        0.3732148251
 H        -6.5105471059        9.6661913320        3.2636305704
 H        -5.6517428266        8.1513649662        2.8675977937
 H        -7.3352108295        7.9989304124        3.2031279545
 H       -13.7172519157       10.2480088557        1.2945463089
 H       -14.2967714413        9.9279323776       -0.2640130315
 H       -12.7356163613       10.6806095782       -0.0537730108
 H       -13.6089554065        6.4950647502        0.8549197994
 H       -14.8606971771        7.4892939701        0.0880926502
 H       -14.2994714287        7.6787949532        1.8065267784
 Na       -9.0510219627        0.8104983197       -0.5770070017
