117

 C        -1.1661849430        6.8284485845        2.2717561858
 C        -1.4286009040        8.2509109874        2.9002349186
 O        -0.9007166903        8.5796014864        3.8970700530
 C        -2.5299511805        9.2402428275        2.1621784359
 C        -3.8439980084        8.4865743088        2.1268502564
 O        -4.2269501395        7.9940495621        1.0850834951
 C        -4.6584182128        8.2492439146        3.3595586950
 C        -5.6835914320        7.0690981199        3.3142252823
 C        -7.1350547459        7.4046157990        3.3018369779
 O        -7.5635757542        8.4247410551        2.8662465962
 C        -8.2023207734        6.1596129593        3.7082467587
 C        -9.4831118158        6.4214024542        2.9181886010
 O       -10.4622387753        6.9100106331        3.4284569045
 C        -9.4930981528        6.3117336266        1.3521842873
 C       -10.9380315341        6.4969579955        0.7644816292
 C       -11.7130133677        5.2250739299        0.8426419442
 O       -11.1602665791        4.1127835106        0.7400355680
 C       -13.3053029826        5.0822547468        1.1478739126
 C       -13.8671600229        4.2149896346       -0.0684389179
 O       -13.0320208842        3.8723173382       -0.9569662355
 C       -15.3939092250        3.8513455536       -0.1695952638
 C       -15.4778813715        2.4326281823       -0.6985015799
 C       -14.5495641338        1.4902812034        0.0420278544
 O       -13.8112444311        1.9827336667        0.8803089643
 C       -14.5769812673       -0.0580631799       -0.2321911997
 C       -13.4491709023       -0.3928540174       -1.4569757561
 O       -12.4962857954        0.3412798104       -1.3947400966
 C       -13.8203124445       -1.4556039107       -2.4929973633
 C       -12.9334925831       -1.4770567443       -3.7287438546
 C       -12.9522664481       -0.1014412188       -4.5140637458
 O       -13.9597755362        0.5556050002       -4.3577724019
 C       -11.6071803421        0.2907726813       -5.3322916824
 C       -10.5104545085        0.7465211607       -4.3688473361
 O       -10.2430765203       -0.0449081886       -3.4709115638
 C        -9.7233240645        2.0336762178       -4.6139395040
 C        -8.6138971629        2.1353161627       -3.5545019753
 C        -8.9949591774        2.0845157585       -2.0789639825
 O       -10.0293813223        2.5854017219       -1.7783896045
 C        -8.0096375828        1.4888428443       -1.0181860852
 C        -8.8268836440        0.3227112056       -0.5268363265
 O        -9.8394724297        0.4371826079        0.1550798820
 C        -8.4960911233       -1.1386046951       -0.9390663835
 C        -6.6277790192        1.1076014040       -1.6324736111
 C        -7.8410985231        2.5268758290        0.1835173995
 C       -11.0869166601       -0.9353718522       -5.9916985546
 C       -11.9950428866        1.4439614766       -6.4152673231
 C       -14.0163049681       -0.6504810137        1.1400243361
 C       -16.0066490041       -0.6601201074       -0.4906741328
 C       -13.1653591119        4.4556856651        2.5861693801
 C       -14.1682714154        6.4226601018        1.1586205819
 C        -7.5913207988        4.7639806981        3.3217811013
 C        -8.4712183387        6.2745027575        5.2134925710
 C        -2.5044886375       10.6114353480        3.0177153788
 C        -2.0898765441        9.4706355915        0.7384165717
 H        -1.4164082047        6.0066131890        2.9328028677
 H        -0.1454561777        6.6676987493        2.0273469193
 H        -1.7172760734        6.7711122689        1.3446963883
 H        -5.0727460867        9.1223116987        3.6784689886
 H        -3.9790580122        7.8849343725        4.1633179704
 H        -5.3282867371        6.3291350223        4.0360026672
 H        -5.5192023510        6.6155919928        2.3411301905
 H        -9.0895122021        5.2869306343        1.0320602119
 H        -8.8965584112        7.1412504114        0.9249729642
 H       -10.7771735072        6.7494933342       -0.2837571691
 H       -11.4479971496        7.3710366183        1.2188660978
 H       -15.8351755548        4.4283378202       -0.9817097324
 H       -15.9498769380        3.9917712723        0.7228226370
 H       -15.1670337504        2.4000278541       -1.7056328429
 H       -16.5280559282        2.0592304387       -0.5937672082
 H       -14.8515663876       -1.1782093286       -2.7590390315
 H       -13.9799552138       -2.4418866030       -2.0867045953
 H       -13.2405548878       -2.3409220166       -4.3682914009
 H       -11.9472845378       -1.7834383417       -3.3732135067
 H       -10.4392690496        2.8155606434       -4.6701811099
 H        -9.2536437772        2.0037198616       -5.5689202887
 H        -8.0461158446        3.0981386562       -3.6576809288
 H        -7.9355891145        1.3662068478       -3.9429021130
 H        -8.8063653693       -1.2004121071       -1.9656341039
 H        -9.1661945199       -1.7855871750       -0.3306067512
 H        -7.4595138821       -1.2594205330       -0.7376353502
 H        -6.0248290627        1.9804264783       -1.9434299192
 H        -6.8247154130        0.4425006876       -2.4728759660
 H        -6.0539698425        0.6291446208       -0.9610037491
 H        -8.7378128403        2.7240717310        0.6544648022
 H        -7.3299942488        3.4193501097       -0.1967546373
 H        -7.1436749670        2.1129430352        0.8278956277
 H       -11.5478733676       -1.2005982185       -6.9672312941
 H       -11.1873151682       -1.8052694783       -5.3892176991
 H        -9.9714188490       -0.8300183814       -6.2188792950
 H       -12.5205999214        2.2134384129       -5.9631735573
 H       -12.5987031659        1.0745085185       -7.2330905573
 H       -11.1263263272        1.9275336917       -6.8019723955
 H       -14.5374693361       -0.1745514317        1.9392302690
 H       -12.9878018862       -0.3585829413        1.2365039970
 H       -14.1652753599       -1.7022757028        1.3634756054
 H       -16.7137753600       -0.3781052541        0.3849347814
 H       -15.8588445390       -1.7832491678       -0.5028629408
 H       -16.5796172306       -0.2962437555       -1.3150730186
 H       -14.1246140505        4.1082654010        2.8611556044
 H       -12.9812418964        5.2433917756        3.3112847938
 H       -12.4660247129        3.6142073586        2.7612220815
 H       -14.1061795034        6.9222368205        0.2245511322
 H       -13.7736140380        7.0658720034        1.9255744296
 H       -15.2659709221        6.2871996494        1.3298075856
 H        -6.6981111862        4.5186772486        3.9286453941
 H        -7.4663457029        4.7234856796        2.2262082230
 H        -8.3946762227        4.0575779159        3.5361779869
 H        -8.8535428183        5.3835393513        5.6561130489
 H        -9.3517929414        6.8730141735        5.3507033187
 H        -7.6933324544        6.6454152625        5.8500474688
 H        -3.1618508674       10.4686200207        3.7903096085
 H        -2.7957589640       11.3902088544        2.3650100432
 H        -1.4943495715       10.7427547097        3.3731311195
 H        -1.8288941842        8.5688930992        0.2084056085
 H        -1.3965336584       10.2947606822        0.6693451588
 H        -2.9541090176        9.7961011942        0.1150712303
 Na      -11.6812296952        2.0298621559       -0.0100911376
