117

 C       -12.2960926997        9.1087975413       -2.7520308389
 C       -12.1651399354        8.3313630347       -1.4665717086
 O       -11.7650512300        7.1819970477       -1.5991400595
 C       -12.7042297028        8.8625635231       -0.0891554170
 C       -11.3751009637        8.9459913657        0.7579168782
 O       -10.8843820857        7.9275593509        1.1436252829
 C       -10.8250122851       10.3124176424        1.1451714403
 C        -9.4478327628       10.0491152639        1.8861240453
 C        -8.4241993313        9.5835149766        0.7693890715
 O        -8.6490329502        9.8980918730       -0.4038422146
 C        -7.0414825714        8.8790851613        1.0708546839
 C        -6.8690994860        7.6684298941        0.1543748903
 O        -6.9833128861        6.5110683724        0.5642920687
 C        -6.4608043684        7.8708598635       -1.3437357345
 C        -6.8189567761        6.6436088830       -2.2319567531
 C        -5.8574605767        5.4196166933       -1.9895297388
 O        -4.8982427980        5.4578784848       -1.2373140014
 C        -6.2330424765        3.9582441703       -2.5428198137
 C        -6.7824277233        3.1835314960       -1.3020085438
 O        -7.8699249501        2.5800403530       -1.4108220747
 C        -5.9517017973        3.0518441464       -0.0535562698
 C        -6.6386634101        3.3782272197        1.2289909552
 C        -7.6431302562        2.3487584483        1.7686794513
 O        -7.4888592233        1.1785144453        1.4783577906
 C        -8.8109539614        2.7671574144        2.7154929218
 C       -10.1410318458        2.6040276213        1.8542705549
 O       -10.5012504828        1.4326281570        1.7317244840
 C       -10.9105015729        3.8323903064        1.4046490438
 C       -11.6432801236        3.6341986603        0.0393925086
 C       -12.8201402447        2.6907213668        0.1527523414
 O       -13.5132621342        2.7755362924        1.1352404922
 C       -13.1424200901        1.7215444805       -1.1188641548
 C       -11.9087026703        0.7870895370       -1.2873263371
 O       -10.8999624170        1.3629489646       -1.5391136928
 C       -12.0989394904       -0.7497036294       -1.1733762054
 C       -11.6222036659       -1.1689532728        0.2642261193
 C       -10.2161739437       -1.9254618060        0.0765787552
 O        -9.2436973944       -1.4602161628       -0.4576440500
 C       -10.1439104738       -3.4398238133        0.5894442761
 C       -11.1390365494       -4.3229488115       -0.3684078240
 O       -12.2169940228       -3.8081162078       -0.6490378543
 C       -10.6671041627       -5.6309790471       -0.8554583797
 C        -8.6517942612       -3.9815369195        0.5619897158
 C       -10.7154151598       -3.6091053837        1.9896261626
 C       -14.4243672283        1.0771072668       -0.7958288303
 C       -13.1944016207        2.5637569820       -2.4255285238
 C        -8.8461941373        1.7556753629        3.9543544472
 C        -8.6092838709        4.0691552320        3.4256011508
 C        -7.2360849977        3.9716450125       -3.6815536352
 C        -4.9197513703        3.2182848695       -2.9439746451
 C        -6.0128904686        9.9773969338        0.8371290419
 C        -7.0458828456        8.3328442639        2.5127573973
 C       -13.4090486320       10.2232352388       -0.1541547678
 C       -13.6584480380        7.7150389842        0.4985400898
 H       -13.3229882771        9.1409358801       -3.1446381452
 H       -11.6087668801        8.5890835074       -3.4504627985
 H       -11.9562042295       10.1113703425       -2.6027197611
 H       -11.5921494503       10.8209846329        1.6968366502
 H       -10.5576084154       10.8996738611        0.2820075771
 H        -9.6672683454        9.2907442358        2.6142810901
 H        -8.9615220327       10.7995375415        2.4246815888
 H        -5.3625695457        7.9796684698       -1.3086030918
 H        -6.9375859524        8.7799340587       -1.6894063916
 H        -6.8440918743        6.9189833075       -3.2710935493
 H        -7.8467685703        6.2457037967       -2.0203371552
 H        -5.0775341506        3.6188868442        0.0189270344
 H        -5.6367886182        2.0124267221       -0.0169626301
 H        -7.1299156090        4.3817985294        1.2784334606
 H        -5.9905248949        3.4439141757        2.1014620798
 H       -10.2815697527        4.7129962715        1.3242178636
 H       -11.5883032399        3.9555796680        2.2353279285
 H       -10.8410851888        3.2953936869       -0.6146469203
 H       -11.9777553585        4.5527683393       -0.3627657670
 H       -11.6396024889       -1.3821584878       -1.9298040496
 H       -13.1450547870       -1.0029847079       -1.2515433894
 H       -12.3084265621       -1.9489095040        0.7521458278
 H       -11.6693553859       -0.3704347489        0.9473663210
 H        -9.7171498668       -5.8652034085       -0.5132974678
 H       -10.6215225244       -5.6264346777       -1.9320351476
 H       -11.3690033385       -6.4797873375       -0.5462381532
 H        -8.2767694260       -3.8629859752       -0.4807734026
 H        -8.5936863523       -5.0336250667        0.9513698691
 H        -7.9829717429       -3.4416500774        1.1783356777
 H       -11.7982909734       -3.4855553012        2.0570070406
 H       -10.2485689384       -2.8766040240        2.6321036804
 H       -10.4227457920       -4.5789929517        2.3313716558
 H       -15.2134660405        1.7699180468       -0.6915524260
 H       -14.4802040338        0.6004397014        0.1668203287
 H       -14.7445954866        0.2352299216       -1.4810989342
 H       -13.4746178641        1.8666655264       -3.2036362744
 H       -12.1729887123        2.8961471858       -2.7099493611
 H       -13.9934921458        3.3188903817       -2.3907149774
 H        -9.3436081086        0.7925376646        3.7230678576
 H        -9.1517435875        2.3698475122        4.8062546037
 H        -7.7784189022        1.4631885477        4.2536271430
 H        -7.7707240351        4.1003053249        4.1510125239
 H        -9.4236792585        4.1805913150        4.0653289010
 H        -8.4368894822        4.9089979896        2.7393076272
 H        -7.0492584630        3.2861005083       -4.4541103151
 H        -7.2088198884        4.9844903169       -4.0526402323
 H        -8.1688116264        3.6482084810       -3.3621924786
 H        -4.2123417415        3.4355111927       -2.1340895521
 H        -4.5273202239        3.6598459908       -3.9025619915
 H        -5.0670151311        2.1954916269       -2.9703197001
 H        -6.4596680333       10.8829929289        1.2151924899
 H        -5.7101573514       10.2535187415       -0.2295705399
 H        -5.0577577133        9.7222605150        1.3315310315
 H        -7.2143721924        9.1617954447        3.1660286565
 H        -6.0252465469        7.9702089694        2.6614265493
 H        -7.7488042005        7.6167768362        2.7806775761
 H       -13.7175805325       10.4992418393        0.8581758258
 H       -14.2469406993       10.2103252841       -0.8302713615
 H       -12.6847862720       10.9487384641       -0.5843421991
 H       -13.0851702701        6.7824401756        0.4327576276
 H       -14.5927001821        7.5272311162       -0.0320563201
 H       -13.8157992792        7.9381147943        1.5319231281
 Na       -9.0948659091        0.7886623699       -0.2071626013
