117

 C       -12.0697265421        9.0887676073       -2.8972886056
 C       -12.2390540101        8.1992849407       -1.5765497131
 O       -11.8033268650        7.0707204962       -1.5209160918
 C       -12.7614402011        8.8085333839       -0.1179466846
 C       -11.4991643204        8.9383380691        0.9154760979
 O       -10.9701916159        7.9388957738        1.2883446578
 C       -10.8303196459       10.2900069084        1.1066148439
 C        -9.3064891454       10.1769207142        1.5516314934
 C        -8.2707227235        9.7479831351        0.4743409170
 O        -8.4131942832        9.9459702657       -0.7089177785
 C        -7.0939962017        8.8970219143        1.0420934503
 C        -6.9859573419        7.5927192219        0.1820996149
 O        -7.6252969894        6.6095315906        0.5455328381
 C        -6.3397712946        7.6901417363       -1.1990630353
 C        -6.6827737836        6.4781940931       -2.1263167366
 C        -5.7241449764        5.3423974730       -2.0823884632
 O        -4.5735603805        5.4952005845       -1.7266552440
 C        -6.1620003799        3.8480735685       -2.5501703957
 C        -6.6448917428        3.0291503171       -1.2424618637
 O        -7.7099333981        2.4044281745       -1.3148395673
 C        -5.8230403540        2.9777151443        0.0086721828
 C        -6.6424458680        3.6004473064        1.1239239820
 C        -7.5525674903        2.5072734145        1.6424239314
 O        -7.3720583159        1.3084693565        1.3602971531
 C        -8.6820264691        2.8708196146        2.6564295463
 C       -10.0852587764        2.8980526922        1.8534939457
 O       -10.6025273436        1.8023139911        1.6831411923
 C       -10.8296038983        4.0839247056        1.3679046214
 C       -11.6475900712        3.7851557140        0.0114132638
 C       -12.7575542120        2.6940419890        0.2159386197
 O       -13.5121516362        2.6950790477        1.1525768958
 C       -13.1175235310        1.8441264214       -1.1225537554
 C       -11.9633734969        0.7900160906       -1.3030676572
 O       -10.8357883655        1.2885845618       -1.3950235430
 C       -12.1293310329       -0.7301743516       -1.1358396233
 C       -11.7116551532       -1.3088298786        0.2399201452
 C       -10.3611112893       -2.0877669778        0.3597258175
 O        -9.3281395050       -1.4521646081        0.2980176254
 C       -10.2953091250       -3.6195246298        0.6634151670
 C       -11.2425327180       -4.4783055466       -0.3342751308
 O       -12.2577839540       -4.0020851332       -0.8065612760
 C       -10.8853448661       -5.9142664023       -0.6688901770
 C        -8.8059108344       -4.2188698633        0.5506755505
 C       -10.8264746154       -3.7549473323        2.0759721400
 C       -14.4899198697        1.1694490492       -0.8507974081
 C       -13.1302560530        2.8689592298       -2.2739189691
 C        -8.7728875219        1.7476903593        3.7420511645
 C        -8.5452115254        4.1686665308        3.4793939716
 C        -7.3285395912        3.8570815529       -3.5337824083
 C        -4.8654362682        3.1441985310       -3.0716486349
 C        -5.7675737181        9.8421673662        0.8169606140
 C        -7.2199122923        8.5131953009        2.5465516561
 C       -13.4489123440       10.1931486233       -0.4079601582
 C       -13.8454346353        7.8883195296        0.4508474849
 H       -12.8978433292        9.8502788824       -2.9092512614
 H       -12.1181978307        8.4524219919       -3.8067769296
 H       -11.0967163079        9.5324851246       -2.9173035498
 H       -11.3443319313       10.9476402777        1.8393881490
 H       -10.8668934247       10.9397368301        0.1842215988
 H        -9.3580577094        9.4530886297        2.4228147685
 H        -8.9912617783       11.1701883708        2.0841368201
 H        -5.2604530755        7.8037816619       -1.0833525217
 H        -6.7415619114        8.5953677295       -1.6404882561
 H        -6.5986265482        6.8060383827       -3.1780123884
 H        -7.7163603566        6.0902664662       -1.9607218232
 H        -4.8746655794        3.4559900979        0.0019774269
 H        -5.5492511359        1.9275621716        0.3937155646
 H        -7.2536369456        4.4489358566        0.9403677776
 H        -6.1449532400        3.8271966350        2.0503777312
 H       -10.1738525850        4.9361877732        1.2693225103
 H       -11.6607447646        4.3882959045        2.0203921398
 H       -10.9536676597        3.6347837708       -0.8693277928
 H       -12.1327349904        4.7273776848       -0.2459232801
 H       -11.5481682322       -1.2478390285       -1.9269484526
 H       -13.1316507265       -1.1075042664       -1.3290739229
 H       -12.5288292170       -1.9310191109        0.6803018409
 H       -11.6196317972       -0.5181824784        1.0113220364
 H       -10.0850339772       -6.2810909786       -0.1011398603
 H       -10.6059581801       -6.0918235937       -1.7073471767
 H       -11.7917086552       -6.5392273968       -0.4320862350
 H        -8.6328371315       -4.2336318178       -0.5503549171
 H        -8.6969766688       -5.1728281654        1.1250406381
 H        -8.1023865902       -3.5586510343        1.0228222514
 H       -11.8691733728       -3.3812238268        2.0899582346
 H       -10.1479559558       -3.2981613384        2.8440397366
 H       -10.8075200183       -4.8163154618        2.2133127145
 H       -15.3438909200        1.7703695376       -0.5688172735
 H       -14.4162807094        0.4839391944       -0.0372917333
 H       -14.9528609219        0.5146529701       -1.6432992627
 H       -13.5496456017        2.5063368092       -3.2039615767
 H       -12.1055237266        3.0778386714       -2.4651524474
 H       -13.6890850826        3.7218516150       -1.8997280803
 H        -8.1982061910        0.9565838169        3.2852459231
 H        -9.7225082128        1.4149674549        4.0656227786
 H        -8.2602264998        2.0842315613        4.6200070391
 H        -7.5868288201        4.2668070261        4.0712536501
 H        -9.2772368343        4.1354712792        4.2004818032
 H        -8.5220746830        5.0984143870        2.9372240208
 H        -7.0414415391        3.5676182000       -4.5964381675
 H        -7.7869067050        4.8699213573       -3.6557857990
 H        -7.9718454303        3.0213252174       -3.1977878763
 H        -3.9949778766        3.3310094817       -2.3748271527
 H        -4.6589598832        3.5783340431       -4.0540932061
 H        -5.0646144304        2.1562184051       -3.1755855573
 H        -5.3492969370       10.2081946220        1.7239568164
 H        -5.9020268073       10.6945279000        0.1875178156
 H        -5.0384551416        9.2651138065        0.2868814401
 H        -7.3420842716        9.3064422970        3.2925668186
 H        -6.3222825090        7.8833928600        2.8141966490
 H        -8.0750198514        7.8179044865        2.6322983143
 H       -13.5735808180       10.7520753190        0.5200988535
 H       -14.4594159167        9.9722983010       -0.7072498789
 H       -12.9177860219       10.7918660738       -1.1505585951
 H       -13.4380759346        6.8966615833        0.8002564032
 H       -14.5190103296        7.6699773023       -0.3774503247
 H       -14.2235722956        8.2911937859        1.3889596094
 Na       -9.0586729561        0.8681512502        0.0416079003
