117

 C       -11.9303740428        8.9410832553       -2.8081918573
 C       -12.1669902926        8.1106178833       -1.5273378532
 O       -12.0272033579        6.9285884987       -1.4133178754
 C       -12.7200839020        8.8746616570       -0.2496241128
 C       -11.5014703062        8.9970346945        0.7162019465
 O       -11.1958776513        8.0265035198        1.3869455933
 C       -10.7443439576       10.2815758046        0.6872958430
 C        -9.3706959393       10.1796475450        1.3990034132
 C        -8.3070482894        9.7550369685        0.4636042267
 O        -8.2872193384        9.9763053087       -0.7212013189
 C        -7.0907951243        8.8670925373        0.9893698662
 C        -7.2107659803        7.5330245482        0.1877452219
 O        -7.8626482682        6.5772192265        0.5207422340
 C        -6.3979212101        7.4980351657       -1.1593548337
 C        -6.8041527416        6.3105745699       -2.0198223632
 C        -5.6750229633        5.2178664794       -2.1536002484
 O        -4.5386539466        5.5230646703       -1.9015663192
 C        -6.1357266110        3.8029889784       -2.5585385622
 C        -6.6415910021        3.0553952327       -1.2205292042
 O        -7.5765702748        2.2856697763       -1.2842869796
 C        -5.7345987308        3.1897971036        0.0051905814
 C        -6.4663474831        3.7715464687        1.2612555399
 C        -7.5525620230        2.6800299717        1.7683630182
 O        -7.3116325618        1.5280743931        1.4754064450
 C        -8.7650785218        2.9759983383        2.6967411468
 C       -10.0496540468        2.8804225493        1.8475668224
 O       -10.4246558281        1.7874140751        1.4325336530
 C       -10.8164046187        4.1686691696        1.4091141135
 C       -11.5691641362        3.8899363251        0.1338062811
 C       -12.6847232095        2.8338804974        0.3038904092
 O       -13.2644544039        2.6920955027        1.3735252017
 C       -13.0156698527        1.9501621559       -1.0129373685
 C       -11.8364821259        0.8885958450       -1.1692543384
 O       -10.7397487973        1.3573465730       -1.4647614315
 C       -12.0492833784       -0.7005169538       -1.0392447466
 C       -11.8793578554       -1.3709701192        0.3692449817
 C       -10.5577827966       -2.1041162370        0.5356743228
 O        -9.4359858524       -1.5530377979        0.4321934682
 C       -10.4158675802       -3.6603241679        0.6761964069
 C       -11.3925128032       -4.4564194650       -0.2952582735
 O       -12.2903111632       -3.9291938865       -0.8889904428
 C       -11.1043254162       -5.9977079319       -0.4396082853
 C        -8.8975666178       -4.0314594894        0.5500495313
 C       -10.9585956013       -4.1628349115        2.1666699278
 C       -14.3388775399        1.2748220165       -0.8548256459
 C       -13.1146678870        2.7564735809       -2.3626848774
 C        -8.8930781605        1.8316893527        3.7432243201
 C        -8.6247236131        4.3588278192        3.3091285656
 C        -7.2286241035        3.9154273217       -3.5913180442
 C        -4.9892458916        3.0276470034       -3.1232946267
 C        -5.7781533992        9.5961494031        0.7496334324
 C        -7.0951406167        8.5532527931        2.4480830928
 C       -13.3396663433       10.2752480402       -0.3953836209
 C       -13.7375793678        7.8418285686        0.3782754312
 H       -12.7447434171        9.6198828588       -3.0024720501
 H       -11.6414485135        8.3620389243       -3.6772010860
 H       -10.9740997760        9.4929899946       -2.5417304457
 H       -11.2752205396       11.1377813799        1.0813776708
 H       -10.5663632719       10.6101406979       -0.3084891399
 H        -9.4847428386        9.6172125969        2.2721158865
 H        -9.1147179814       11.1391306240        1.7110041200
 H        -5.3262937964        7.3983094629       -0.9414247035
 H        -6.5054920717        8.4478175717       -1.7165656258
 H        -7.0756665599        6.6617836664       -3.0301922043
 H        -7.6320277622        5.8026195808       -1.5368596584
 H        -4.7946291660        3.7524209453       -0.0258015197
 H        -5.4217223807        2.2381671539        0.2595288061
 H        -6.9986841790        4.7429934404        1.0863029488
 H        -5.7980398033        3.9108514624        2.1384946838
 H       -10.2090325147        5.0653092077        1.2887176116
 H       -11.5776984597        4.3977401794        2.1338196551
 H       -10.8773767925        3.7121852073       -0.6276392185
 H       -12.0346466366        4.8018531967       -0.2430845755
 H       -11.4193262044       -1.1928819567       -1.7711411730
 H       -13.0868431241       -0.9367180725       -1.3297190528
 H       -12.6670119197       -2.0866483881        0.5124341322
 H       -12.0104573825       -0.6651063762        1.2023946992
 H       -10.7597829625       -6.6136098094        0.4424837339
 H       -10.2845841042       -6.1013619904       -1.1578552421
 H       -11.9473542393       -6.4121724018       -0.8779632813
 H        -8.6256545277       -3.8829185793       -0.4903255399
 H        -8.8203996871       -5.0712917666        0.8589878603
 H        -8.2222227180       -3.4340247762        1.2542397694
 H       -12.0000539352       -3.9196797515        2.1766294522
 H       -10.4007499123       -3.6581158543        2.9205705209
 H       -10.8269236001       -5.2614283070        2.2663767607
 H       -15.1545857709        2.0187517828       -0.7768738943
 H       -14.4255630562        0.6863713586        0.0795912746
 H       -14.7551934560        0.6843653761       -1.6014701746
 H       -13.2777318809        2.0121421476       -3.1561948972
 H       -12.1352680726        3.2313564666       -2.5578399761
 H       -13.9518864209        3.4521356980       -2.3050880066
 H        -8.7215143262        0.8376863019        3.2711727191
 H       -10.0086151945        1.8011628187        4.0081920915
 H        -8.3856014584        2.0283933546        4.7089038194
 H        -7.8148696511        4.4305236522        3.9723316775
 H        -9.5916738850        4.7184244095        3.8038527672
 H        -8.4506096189        5.1260228632        2.5613367224
 H        -6.8614147753        4.4741210010       -4.4250916929
 H        -8.1179353475        4.4209247334       -3.2621705314
 H        -7.4539402960        2.8833770245       -3.8756329226
 H        -4.4624584141        2.5851404199       -2.3141813493
 H        -4.3141993646        3.6249726729       -3.6899788799
 H        -5.4574172024        2.2313314236       -3.8148556907
 H        -5.5386979057       10.3649192307        1.5510275740
 H        -5.7908994426       10.1029851006       -0.2188101095
 H        -4.8659878809        8.9548268618        0.7610014452
 H        -7.2184400531        9.4491315031        3.0314963538
 H        -6.2473388691        8.0721495126        2.8225791501
 H        -7.9115605511        7.8521952585        2.6061268518
 H       -13.6842719888       10.6946602150        0.5565945565
 H       -14.2492241399       10.1189921769       -1.0120546994
 H       -12.6407238925       10.9551307699       -0.8750302746
 H       -13.3724808566        6.8533943353        0.5415405055
 H       -14.5619253605        7.7798635828       -0.3452592087
 H       -14.0079998277        8.1693322362        1.3861849812
 Na       -8.9908075158        0.7554866667       -0.0779646660
