117

 C       -11.8056580319        8.9271083085       -2.7778014055
 C       -12.2559486253        8.0984043433       -1.5188330011
 O       -12.0574914665        6.9107544782       -1.5388473380
 C       -12.7982360655        8.8382861467       -0.2614627705
 C       -11.5093359722        8.9548847084        0.7395536664
 O       -11.1711908228        8.0796755048        1.5044561923
 C       -10.6312551577       10.2265608273        0.5428825521
 C        -9.3403704364       10.2470682895        1.4020320957
 C        -8.1986782877        9.7435108939        0.4400244177
 O        -8.2686889174       10.0117191820       -0.7097302549
 C        -7.0773277354        8.8393733840        0.9916840197
 C        -7.1703112187        7.4676912758        0.1678512590
 O        -7.9042288032        6.5995552786        0.5636807284
 C        -6.4710770782        7.4279805073       -1.1848443777
 C        -6.8705862908        6.2077286228       -1.9796668386
 C        -5.7097267938        5.1954328194       -2.1704901017
 O        -4.5599579138        5.5108700404       -1.9617281227
 C        -6.1265977768        3.7632562411       -2.5845256599
 C        -6.6251587922        3.0573895292       -1.2074731808
 O        -7.5587960079        2.2695692585       -1.2761332547
 C        -5.8174343773        3.3113266554        0.1190979100
 C        -6.6056669857        3.7751393271        1.3471834549
 C        -7.4746516542        2.6264965939        1.8725163831
 O        -7.2809485791        1.4777847464        1.4204851169
 C        -8.7219910332        3.1042894671        2.6835324928
 C        -9.9094769519        2.9519779567        1.7080730268
 O       -10.2891011881        1.8452506999        1.3153120300
 C       -10.7978296054        4.1609541491        1.4437001774
 C       -11.5483547331        3.9888793823        0.1488035414
 C       -12.6177088045        2.8308782969        0.2700491120
 O       -13.1834375373        2.6417208670        1.3132636005
 C       -13.0199662320        1.8805194588       -0.9972635289
 C       -11.8335933390        0.8974105790       -1.0693083701
 O       -10.7083813689        1.3417467256       -1.4546770405
 C       -11.9813675995       -0.5984950257       -0.9127644923
 C       -11.9108520609       -1.3674798809        0.4221612188
 C       -10.6079725935       -2.1369222013        0.5400517904
 O        -9.5654573070       -1.4755965625        0.4250945200
 C       -10.5030101087       -3.7031849110        0.7712076537
 C       -11.3963770625       -4.4346452899       -0.3086876324
 O       -12.2858449112       -3.8857829633       -0.9400193670
 C       -11.2178587655       -5.9535823090       -0.4248932248
 C        -9.0129438508       -4.0179463836        0.5585840634
 C       -11.0043689184       -4.1030782878        2.1477035847
 C       -14.3673972482        1.2418859953       -0.6974860183
 C       -12.9744251680        2.6810114367       -2.3344770847
 C        -8.9250870664        2.0211181232        3.8054500926
 C        -8.6827526908        4.4967755953        3.2943473984
 C        -7.2743943144        3.8432228196       -3.6953226145
 C        -4.8986993499        2.9319650547       -3.1904503841
 C        -5.7468398590        9.5818652052        0.6424176201
 C        -7.1619593853        8.4948667427        2.5818736548
 C       -13.4381338552       10.1924237413       -0.6500171063
 C       -13.8012974247        7.9268022893        0.5248597393
 H       -12.7158242684        9.3308204064       -3.2341017604
 H       -11.4095580618        8.1961886659       -3.4330037639
 H       -11.0332112442        9.6408006726       -2.6542105312
 H       -11.1691019244       11.1516676155        0.6895336710
 H       -10.3621195063       10.3681155431       -0.4965943096
 H        -9.5496126801        9.5447782918        2.1251257973
 H        -9.2180698109       11.1850378611        1.9448279453
 H        -5.3879404593        7.2745681082       -0.9588501501
 H        -6.5241492274        8.3922198992       -1.7515346247
 H        -7.0834634858        6.5257442649       -3.0117368164
 H        -7.6771878340        5.6772906965       -1.5455607891
 H        -5.0095484918        4.0160431131        0.1580585131
 H        -5.2961612646        2.3778635555        0.4117428176
 H        -7.2095288053        4.6806421807        1.2392746600
 H        -5.8911148960        3.9412415372        2.2207824600
 H       -10.2037096464        5.0845764453        1.3369971742
 H       -11.4768918267        4.3012050134        2.3321476574
 H       -10.7686653537        3.9583258100       -0.6149576190
 H       -12.0701053661        4.9059000153       -0.2011736674
 H       -11.1739051240       -1.0026884591       -1.5495650700
 H       -12.9376925903       -0.8568241424       -1.4025524078
 H       -12.7626647699       -1.9517992229        0.5851968932
 H       -11.8631646689       -0.6690211471        1.2990800892
 H       -11.4104613148       -6.3426449370        0.5780718613
 H       -10.2223313155       -6.3703683341       -0.6647579261
 H       -11.9940466613       -6.3301993239       -1.0918305175
 H        -8.7894836817       -3.5887096392       -0.3953709414
 H        -8.7900180530       -5.0656970751        0.5627778708
 H        -8.4567739873       -3.5082480469        1.3248332159
 H       -12.0392570146       -3.8352232096        2.1675297610
 H       -10.4097805019       -3.5358508309        2.8593241783
 H       -10.9042270496       -5.1452109880        2.3113281898
 H       -15.2241518734        1.9156147845       -0.6484464513
 H       -14.3537187696        0.7037035394        0.2179880687
 H       -14.7878581697        0.5677770654       -1.4148118267
 H       -13.1621067634        1.9471306512       -3.1553611047
 H       -12.0275024780        3.1540732166       -2.4821149881
 H       -13.8122315321        3.3943840411       -2.2895292596
 H        -9.2077879208        1.0309752741        3.3378633339
 H        -9.8580745809        2.2980203049        4.3428411237
 H        -8.1343551479        2.0023257832        4.5638914468
 H        -7.8102658045        4.5079422026        4.0469580245
 H        -9.6342049649        4.7512679380        3.7731740867
 H        -8.5578546032        5.3876729881        2.6343229993
 H        -7.1168154320        4.7466160929       -4.2623703822
 H        -8.2681681152        3.8461510926       -3.3019364172
 H        -7.2408908347        2.9604709671       -4.3010801492
 H        -4.2584008108        2.4521320824       -2.3636164489
 H        -4.2532895402        3.5954295377       -3.7717041650
 H        -5.3086511391        2.2332824038       -3.8576557953
 H        -5.7194733273       10.6607567384        0.9928609411
 H        -5.5836175792        9.5761319266       -0.4235860193
 H        -4.8171536239        9.1956244408        1.1647070823
 H        -7.0841427387        9.4006751578        3.1279441685
 H        -6.2997377433        7.9460046433        2.8975161825
 H        -7.9976627477        7.8590812295        2.9090035479
 H       -13.9722732305       10.6061997026        0.2089607652
 H       -14.1779060937       10.0044313435       -1.4454080499
 H       -12.6898693201       10.8982083571       -0.9593286856
 H       -13.5001352877        6.9118059463        0.7431249830
 H       -14.6235562821        7.8857684348       -0.1297085765
 H       -14.0811173931        8.3508795940        1.4815253639
 Na       -8.9036734318        0.6199367735       -0.1247144726
