117

 C       -11.5220841451        8.5397792333       -2.7155317665
 C       -12.2713739825        7.9335987297       -1.4762672919
 O       -12.3905111649        6.7480890769       -1.5223172288
 C       -12.8607936444        8.8160419768       -0.2981535534
 C       -11.5768440286        9.1152274913        0.6169149360
 O       -11.4421444882        8.3971214196        1.5872016198
 C       -10.6754146728       10.3110534773        0.3928724230
 C        -9.2723896738       10.1100260644        1.1231690094
 C        -8.1367575220        9.7632870751        0.2665519178
 O        -7.9461785923       10.0890289145       -0.8457726282
 C        -7.0102450450        8.8258966865        1.0133189039
 C        -7.1713334505        7.4552595630        0.2125824858
 O        -7.7315960058        6.5337585119        0.7033040337
 C        -6.6797067295        7.3514617051       -1.1898135104
 C        -7.1166330459        6.0617005675       -1.9269028158
 C        -5.8903693819        5.1432093419       -2.3422718287
 O        -4.7814951232        5.6141877019       -2.2701698242
 C        -6.1091396068        3.6051458696       -2.5330015398
 C        -6.5247960181        2.8847193001       -1.1457622760
 O        -7.5543651307        2.2263035220       -1.2788831874
 C        -5.7698648607        3.0220262853        0.1323233737
 C        -6.6332531841        3.7416644980        1.1427276145
 C        -7.4721569546        2.7352951304        1.9319909068
 O        -7.3522293494        1.5086076068        1.7737492375
 C        -8.6327148022        3.3259026645        2.6821569132
 C        -9.8712697416        3.2775755472        1.6894388886
 O       -10.1280801090        2.1930508134        1.1683198082
 C       -10.7560693926        4.4394095777        1.3439342400
 C       -11.5606298166        4.0029097844        0.1077682030
 C       -12.5276490445        2.8060680525        0.3145115914
 O       -13.0441286506        2.5758889882        1.3799760970
 C       -12.9267951829        1.8135770578       -0.8676676758
 C       -11.7819624186        0.7508811841       -1.0366226974
 O       -10.6103008539        1.0771846415       -1.2920171722
 C       -12.1438445625       -0.8077924274       -1.0337616094
 C       -11.8578317728       -1.2178222420        0.4158867295
 C       -10.5306314216       -2.0301049107        0.5045943919
 O        -9.3518110275       -1.5711453426        0.4559899715
 C       -10.6803510124       -3.5884598797        0.8517397191
 C       -11.6484675096       -4.2361471784       -0.2886711065
 O       -12.1592365235       -3.5176511241       -1.1057951126
 C       -11.7690302048       -5.8144254702       -0.2977081495
 C        -9.2919816379       -4.1703585518        0.7978604073
 C       -11.3077282955       -3.8161615317        2.2210906825
 C       -14.2769256429        1.1364096585       -0.6170990657
 C       -13.0880523338        2.6482671883       -2.1842611928
 C        -8.9738870668        2.3177319915        3.7944063760
 C        -8.4236508728        4.7613641494        3.2361005589
 C        -7.1812134186        3.2978379787       -3.6967883201
 C        -4.7244670020        2.9546122975       -3.0475682612
 C        -5.5940251916        9.4569656191        0.8121577324
 C        -7.2164607549        8.5514288977        2.5623103675
 C       -13.5533806711       10.1332945384       -0.8243233668
 C       -13.8292999705        7.8294072262        0.3732424828
 H       -12.2243731553        8.7726050957       -3.5542485983
 H       -10.7999223929        7.7782740323       -3.0004596671
 H       -10.8325562611        9.4055296409       -2.4889433292
 H       -11.2057303140       11.1489916576        0.8738745700
 H       -10.5751205702       10.7628786100       -0.5848248037
 H        -9.4942082643        9.3581822289        1.8408025967
 H        -9.0075766170       10.9979429280        1.7206162500
 H        -5.6114683888        7.4180511751       -1.1405569835
 H        -6.9483339448        8.2143980566       -1.7909625150
 H        -7.6388027068        6.3454873246       -2.8759672471
 H        -7.7375134322        5.4593908026       -1.2496720757
 H        -4.8017243749        3.5204376531        0.1184380436
 H        -5.5963359989        2.0742877175        0.5410105844
 H        -7.3582293805        4.3987581283        0.6666897729
 H        -6.1011833931        4.2483422529        1.9442153982
 H       -10.1154639857        5.2613320044        1.0515319764
 H       -11.4034907268        4.7880081524        2.1100846510
 H       -10.8879596689        3.7821511801       -0.6558932294
 H       -11.9903088136        4.9146966505       -0.3109645576
 H       -11.4172926553       -1.2592589448       -1.6811552097
 H       -13.1752887476       -0.9474873235       -1.3512342431
 H       -12.6493645201       -1.8559127142        0.7614687950
 H       -11.8750793509       -0.2647093007        1.0181427114
 H       -12.7707729728       -6.2426632328       -0.0875443970
 H       -11.0751025150       -6.3058274390        0.3909825314
 H       -11.4976464140       -6.0816234527       -1.2720564550
 H        -8.9244898110       -4.2615948503       -0.2591675834
 H        -9.3134521485       -5.1962510802        1.1394827121
 H        -8.6613053763       -3.3770225772        1.3349325884
 H       -12.2957497050       -3.3570161294        2.2162344650
 H       -10.6373400556       -3.2802695181        2.9005246799
 H       -11.4255884337       -4.9019439132        2.4609555382
 H       -15.0983141736        1.8716527519       -0.3859672849
 H       -14.3337460432        0.4411828128        0.2381422668
 H       -14.7216657456        0.6037499445       -1.4130716612
 H       -13.6657360009        1.9473774055       -2.7887429784
 H       -12.1435660460        2.9073813890       -2.6111215028
 H       -13.7026909655        3.5249056464       -2.0369614952
 H        -9.4714863119        1.3944303334        3.4963559949
 H        -9.6660099473        2.6939072820        4.5341209731
 H        -8.0390907946        2.0693588834        4.2067822169
 H        -7.5391595666        4.7042613454        3.7980606249
 H        -9.2354110007        5.0719621951        3.8579022369
 H        -8.4003934792        5.5553109934        2.5858894804
 H        -7.0819510323        4.1726293537       -4.3659863680
 H        -8.1853098550        3.0677556565       -3.3781354075
 H        -6.9775110270        2.3310314464       -4.2368170697
 H        -3.9221753478        3.5611793399       -2.5747425235
 H        -4.6374368690        3.0596321295       -4.0905759746
 H        -4.6234317300        1.8818913330       -2.8243419440
 H        -5.3932653937       10.3688160910        1.3858517131
 H        -5.3131156321        9.5919556447       -0.1563407576
 H        -4.8984075509        8.8246700810        1.3293486713
 H        -7.1791799743        9.5228608603        3.0692269900
 H        -6.3244926588        8.0858735736        2.9356298654
 H        -8.0820632545        7.8928118080        2.8759974283
 H       -13.8879576375       10.7784726563       -0.0142626101
 H       -14.3481420867        9.8979011393       -1.5611529788
 H       -12.8155814070       10.6921920468       -1.3706049911
 H       -13.2455858100        6.9785283039        0.7841843719
 H       -14.6966861174        7.4804668694       -0.2215749560
 H       -14.2994964962        8.3509002580        1.2724049648
 Na       -8.5054613269        0.5476578780       -0.1090968967
