117

 C       -11.3677053064        8.4028506864       -2.7545397464
 C       -12.2637442461        7.9211160318       -1.5778884828
 O       -12.5211400403        6.7256335188       -1.4254347598
 C       -12.8022480968        8.7807278033       -0.3691689600
 C       -11.6787150118        9.1465136515        0.6533835964
 O       -11.4416550817        8.4361782034        1.6313984586
 C       -10.6953988814       10.2848095338        0.2993917409
 C        -9.3498984009       10.1354894570        1.1783087768
 C        -8.0726772069        9.7030028982        0.3116573752
 O        -7.9388619629       10.1057005716       -0.8426623272
 C        -6.9868628750        8.7690583917        0.9485114967
 C        -7.1076420456        7.4189244074        0.1872906411
 O        -7.7057869282        6.5249546147        0.7864874617
 C        -6.7118403398        7.3376225935       -1.2908357580
 C        -7.1701257150        6.0422400940       -1.8901690466
 C        -5.9711731813        5.1351162880       -2.2282358275
 O        -4.8937402576        5.6629009041       -2.4308675183
 C        -6.0416392073        3.5681892946       -2.5065942093
 C        -6.5421078302        2.7537471433       -1.2718339594
 O        -7.5804419674        2.1328038863       -1.3023995889
 C        -5.7129487181        2.8585461086        0.0090895469
 C        -6.4458301710        3.6907724544        1.0860857774
 C        -7.4478661387        2.7800892807        1.9327284485
 O        -7.2862863119        1.5831802369        1.8305001436
 C        -8.6308524127        3.3472839224        2.7506839994
 C        -9.8151730383        3.2853487820        1.6602301329
 O       -10.0915688560        2.2120742755        1.2326853279
 C       -10.7483531550        4.4548187477        1.2457779578
 C       -11.6314035344        4.0531639409        0.0295476483
 C       -12.4680655632        2.7497701894        0.3620954567
 O       -12.9960690004        2.5523477330        1.4201824180
 C       -12.9137571462        1.8001997237       -0.8928797707
 C       -11.8510242076        0.7393051278       -1.1902695560
 O       -10.6747044327        1.0899970536       -1.3029080614
 C       -12.0588185468       -0.7740758278       -1.0052952100
 C       -11.7416639148       -1.2223322402        0.4471297059
 C       -10.4913133492       -2.0608261253        0.5380696257
 O        -9.4053986506       -1.5818570679        0.4188780432
 C       -10.6585087544       -3.5588913505        0.8515634469
 C       -11.6089377345       -4.1721892520       -0.2565403430
 O       -12.1464493262       -3.4752434433       -1.1305227873
 C       -11.9271366823       -5.6274739027       -0.2007075541
 C        -9.3181581043       -4.3739635907        0.9174903024
 C       -11.4462654955       -3.7249772076        2.1673218700
 C       -14.2839024795        1.1863835793       -0.5123148123
 C       -13.0525715202        2.7056806988       -2.1849807284
 C        -9.0569377530        2.3941450838        3.8685218360
 C        -8.4335064420        4.8061163838        3.2425727653
 C        -7.0280850112        3.2847918192       -3.6204736716
 C        -4.6705450273        3.0077463466       -2.9721498101
 C        -5.5786353512        9.3724112799        0.7492397083
 C        -7.3308426380        8.6277931920        2.4222436109
 C       -13.5076159424       10.0849880971       -0.8193257228
 C       -13.8516077286        7.8908087426        0.3094685239
 H       -12.1333217378        8.7482235137       -3.5267949256
 H       -10.7091746901        7.6075789406       -3.1649441861
 H       -10.7226860517        9.2123805766       -2.4949460714
 H       -11.1302541255       11.2590077105        0.3986275291
 H       -10.4425381337       10.3368857260       -0.7333830144
 H        -9.6277969603        9.5211140252        1.9392726588
 H        -9.1204139521       11.0786761757        1.5886543959
 H        -5.6179618867        7.3894932278       -1.2933408535
 H        -6.9989217916        8.2019472705       -1.9129473696
 H        -7.6022239251        6.1934994246       -2.9027126290
 H        -7.8445441365        5.5497671507       -1.2100758449
 H        -4.7708013644        3.3148564428       -0.1221287578
 H        -5.5405722391        1.8859271729        0.4614077293
 H        -7.0646053382        4.4197105363        0.5748314313
 H        -5.7743606858        4.1525425144        1.8878164964
 H       -10.2078846307        5.3620751820        1.0429487282
 H       -11.4371820355        4.6717789463        2.0656416865
 H       -10.9880494698        3.8662370600       -0.8085091755
 H       -12.1448481704        4.9374834263       -0.2782688258
 H       -11.3720947622       -1.2290467714       -1.7120773371
 H       -13.0928570760       -0.9502389622       -1.2228782602
 H       -12.6088763941       -1.7404885699        0.7759442501
 H       -11.5921346873       -0.2939100622        1.0349575612
 H       -12.9791790712       -5.6106891977       -0.3117822590
 H       -11.6989221107       -6.1891725014        0.6915557428
 H       -11.5089140114       -6.1746094747       -1.1075762156
 H        -9.0067302308       -4.6191722929       -0.1302421545
 H        -9.5393985081       -5.3803863842        1.3124078794
 H        -8.5951740153       -3.7409053394        1.3735201855
 H       -12.4058268529       -3.1815361653        2.1377602726
 H       -10.7871760455       -3.3315853432        2.9718126467
 H       -11.6472947900       -4.7665249967        2.2889063021
 H       -15.0355517540        1.9227970013       -0.2124794852
 H       -14.2815446093        0.5271353802        0.3315447989
 H       -14.8305901040        0.5840356156       -1.2792675440
 H       -13.5508264717        2.0696807424       -2.9396429709
 H       -12.1106711582        3.0978083503       -2.4892623770
 H       -13.7417407383        3.5358316935       -1.9645297969
 H        -9.2924012019        1.3728570777        3.4589357626
 H       -10.0329229605        2.6789275972        4.2468560351
 H        -8.2684827178        2.2361672279        4.6287846055
 H        -7.5100261965        4.7073177641        3.8556922987
 H        -9.1951649784        5.2067456744        3.8119926342
 H        -8.2862475198        5.5679415125        2.4747981701
 H        -6.6901441922        3.8483013448       -4.4878921725
 H        -8.0363486532        3.4681786667       -3.3159677691
 H        -7.0868839928        2.2341248539       -3.8173653189
 H        -3.8034383612        3.6709316291       -2.6310757999
 H        -4.6382856071        2.9194931419       -4.0685052496
 H        -4.5556372353        2.0473467136       -2.6064268901
 H        -5.2121971489        9.9931775295        1.5602442428
 H        -5.4658144903        9.9272938207       -0.2054740661
 H        -4.8139076873        8.5733866458        0.8080606570
 H        -7.4464419377        9.5909727380        2.8766242557
 H        -6.4800744204        8.1600305801        2.9111067969
 H        -8.2019069422        7.9819603027        2.5627490659
 H       -13.7845824719       10.6620406495        0.0750713813
 H       -14.3836763705        9.8101994462       -1.4212542833
 H       -12.9055928906       10.7329447347       -1.4598933435
 H       -13.2656470627        7.0561645877        0.7648276129
 H       -14.6216222903        7.4867782370       -0.3404451968
 H       -14.4095074006        8.4005491474        1.1005400800
 Na       -8.5365915390        0.6068254437        0.0608981847
