117

 C       -11.3841163702        8.3414726739       -2.6286502425
 C       -12.2266203811        7.8133845425       -1.5405132845
 O       -12.4964101578        6.6092127938       -1.5729261879
 C       -12.7595324454        8.7556868079       -0.3803512367
 C       -11.5816955162        9.0657056307        0.5868242876
 O       -11.5351575892        8.4673200110        1.6325897352
 C       -10.5893140992       10.2033386832        0.2149950289
 C        -9.3618137159       10.2089497684        1.0795091184
 C        -8.1215138082        9.7890880448        0.2973548182
 O        -8.0010396173       10.1276709615       -0.8769881557
 C        -7.0530077915        8.7970173052        0.9780614817
 C        -7.1985383990        7.4608249897        0.2022602005
 O        -7.6691641146        6.4325324671        0.7426073428
 C        -6.7986107359        7.2917711185       -1.2581761972
 C        -7.1998915216        5.9067623779       -1.9106643548
 C        -5.9123419522        5.1138631964       -2.2797306608
 O        -4.8951293083        5.7015578223       -2.5201146155
 C        -6.0249470698        3.4853402248       -2.5510287807
 C        -6.5439022221        2.7530042621       -1.3131520220
 O        -7.5475991545        2.0497236085       -1.3625105566
 C        -5.6666553638        2.7800523690       -0.0364534369
 C        -6.2907130428        3.6213671742        1.1224553120
 C        -7.4052069880        2.7991810149        1.8877203716
 O        -7.2628627504        1.6018393271        1.9498809441
 C        -8.6623766239        3.3906661349        2.6713744999
 C        -9.8702871753        3.2134598437        1.6484035523
 O       -10.0209653411        2.0960040924        1.1932304657
 C       -10.7419946867        4.4065242938        1.2379237535
 C       -11.6710708971        3.9386883825        0.0569747523
 C       -12.5192334895        2.7635784316        0.2937019923
 O       -12.8541022019        2.5727122264        1.4603629063
 C       -12.9412691708        1.8800446545       -0.8845506345
 C       -11.7356450426        0.8209780071       -1.0921746254
 O       -10.6391322897        1.2232790379       -1.3754398671
 C       -12.0377783657       -0.7005220576       -0.9857587302
 C       -11.6896305581       -1.1388876596        0.5043611368
 C       -10.4350495874       -2.0295795319        0.5836506561
 O        -9.3227053366       -1.6002052845        0.3764372360
 C       -10.7154698950       -3.5945075676        0.8269952803
 C       -11.7097055914       -4.2039807932       -0.2947205315
 O       -12.0665759129       -3.4321251644       -1.1544579317
 C       -12.0943138825       -5.6256148240       -0.1463058596
 C        -9.3940775631       -4.4663414737        0.9750509767
 C       -11.5281388067       -3.6673440841        2.2447186461
 C       -14.2465590191        1.2544945433       -0.4734150381
 C       -13.0602464820        2.7035647721       -2.2145138929
 C        -9.0707330402        2.5262519246        3.8784920985
 C        -8.4078821903        4.8105984957        3.2987632707
 C        -7.0796859642        3.3268381659       -3.6952375191
 C        -4.5818517742        3.0826210502       -2.8010084218
 C        -5.6073111365        9.3524095817        0.6364202779
 C        -7.2858821654        8.6038846669        2.4531775519
 C       -13.4398483816       10.1227804328       -0.9379647083
 C       -13.9164380869        8.0369323645        0.4227852604
 H       -12.1317483803        8.7576542323       -3.2763164454
 H       -10.8432179820        7.5332950944       -3.1461992891
 H       -10.6789100275        9.1086359781       -2.3533898112
 H       -11.0769063667       11.1614123106        0.2619580387
 H       -10.2530675256       10.2253005553       -0.8186738405
 H        -9.6346152965        9.5489406482        1.9416681215
 H        -9.2218938388       11.1972908793        1.4291855530
 H        -5.7199395701        7.5575603788       -1.4392776312
 H        -7.3284938746        8.0564999232       -1.8585037858
 H        -7.6815155279        6.0597028032       -2.8508139311
 H        -7.8087468934        5.3070662630       -1.2349154338
 H        -4.7129265035        3.2800297561       -0.2249406762
 H        -5.4356337168        1.7768172362        0.4247258990
 H        -6.7932239592        4.5024237431        0.6635383069
 H        -5.5840116641        3.8689670646        1.9403896469
 H       -10.0932791977        5.2502840000        0.9334624336
 H       -11.3657933425        4.7447111430        2.1049387792
 H       -11.0498198144        3.8904728161       -0.8952472066
 H       -12.3209070094        4.7902554143       -0.1607650828
 H       -11.3686406815       -1.1602006573       -1.7235979231
 H       -13.0945820191       -0.7981300662       -1.2325151769
 H       -12.6267577137       -1.5920029911        0.9251565545
 H       -11.4600929687       -0.2299683026        0.9926291230
 H       -13.1367279231       -5.6902180921       -0.4495910366
 H       -12.0206894139       -5.9454796749        0.8889391599
 H       -11.4768507626       -6.3311914970       -0.7587597795
 H        -8.9818350605       -4.6859100541        0.0237157408
 H        -9.7023812603       -5.4392803433        1.3522833117
 H        -8.7226668956       -3.9004124689        1.5420260317
 H       -12.4727416376       -3.1199696666        2.1940644307
 H       -10.9066649558       -3.2874712280        3.0358897508
 H       -11.7107789579       -4.7128890151        2.3994406220
 H       -15.0155108671        1.9146985482       -0.1871126423
 H       -14.1688177637        0.6453888149        0.4154614632
 H       -14.7179897520        0.5467524714       -1.1927527129
 H       -13.4091892127        2.1731352937       -3.0831777381
 H       -12.0618103509        3.1699879400       -2.3330380491
 H       -13.7299005438        3.5285918001       -1.9678461266
 H        -8.9570900194        1.4511132594        3.6354407525
 H       -10.1605771263        2.6121422131        4.0288782456
 H        -8.4248458759        2.6651203034        4.7953456680
 H        -7.5963460543        4.6849480297        4.0399731074
 H        -9.3070716967        5.2402233115        3.8450131366
 H        -8.1520354908        5.6470146931        2.5668375982
 H        -6.6065420375        3.5086216759       -4.6133321320
 H        -7.9387624140        3.9690973434       -3.4837746784
 H        -7.5296069720        2.3825466976       -3.6920195223
 H        -3.8948866403        3.7430529078       -2.3572857075
 H        -4.4171248012        3.0733354094       -3.9095106488
 H        -4.3962079797        2.0367127772       -2.4501707613
 H        -5.1643233433        9.8604368076        1.4927087891
 H        -5.6460714409       10.1292842973       -0.2225961108
 H        -4.8168311836        8.5904460429        0.4202929117
 H        -7.4596836263        9.4975153131        3.0318277791
 H        -6.4680509038        7.9989284684        2.8785650477
 H        -8.1533277017        8.0196539369        2.4652996568
 H       -13.7136816120       10.7081820012       -0.0568469845
 H       -14.3138609817        9.8701471988       -1.5094002285
 H       -12.8401816072       10.7752477829       -1.6125619987
 H       -13.4947232912        7.1827530469        0.9009054380
 H       -14.6457670972        7.6264338819       -0.2890908233
 H       -14.5222638990        8.6124015837        1.0626060019
 Na       -8.7273250854        0.6507317804        0.2447434426
