117

 C       -11.3938013140        8.4167980824       -2.6474742639
 C       -12.2935788647        7.7146160248       -1.5565278810
 O       -12.5320136296        6.5462134034       -1.5354267936
 C       -12.8517221310        8.6600000932       -0.4433339329
 C       -11.6126461362        9.0468754091        0.5405544921
 O       -11.4829861930        8.5148753122        1.6077769531
 C       -10.6262420404       10.1396174051        0.2063643962
 C        -9.3366985982       10.2597966446        1.0247159202
 C        -8.1686995539        9.7843790204        0.2557911917
 O        -8.0075706524       10.1105541928       -0.8739284033
 C        -7.1423861190        8.7277990682        0.8821891416
 C        -7.3330717327        7.3782818909        0.1307906595
 O        -7.6789355204        6.4333325544        0.7983144385
 C        -6.9328536485        7.2862633979       -1.3297875797
 C        -7.2306367962        5.8731383438       -1.8992158931
 C        -5.9176000517        5.1396843873       -2.3831522203
 O        -4.8576472289        5.6749617615       -2.5482455640
 C        -6.0366639880        3.6038362380       -2.5450949413
 C        -6.5426922290        2.7725088387       -1.2474921742
 O        -7.4878327138        1.9895176418       -1.3538416544
 C        -5.7222219105        2.7689982994        0.0269519173
 C        -6.2985977873        3.5818344479        1.2366069978
 C        -7.3134720759        2.7470155581        2.0067233857
 O        -7.2626005696        1.5176191626        2.0100146374
 C        -8.6003948126        3.3884385065        2.6143425330
 C        -9.8040671722        3.2491092321        1.5987773683
 O       -10.0812003375        2.0960833880        1.2229128417
 C       -10.6770366076        4.3933382620        1.2546590059
 C       -11.5415056269        4.0659081633        0.0164109126
 C       -12.4666253686        2.8870254747        0.3872382141
 O       -12.7994824354        2.4453670653        1.4735739816
 C       -12.8931637980        1.9417861664       -0.8419652302
 C       -11.7139126970        0.9616233118       -1.0908289375
 O       -10.6168077419        1.3935781404       -1.4085172411
 C       -11.9221541748       -0.5482229714       -0.8557380251
 C       -11.5803818850       -1.0541524372        0.5669954204
 C       -10.4938595222       -2.0822170052        0.5329560742
 O        -9.2722807565       -1.7554988130        0.4028263612
 C       -10.8147531690       -3.5576349103        0.8847265344
 C       -11.7692667589       -4.1542257903       -0.2259190364
 O       -11.9976837301       -3.5188094469       -1.2029582326
 C       -12.2437379794       -5.6125582749       -0.1213791205
 C        -9.5747824356       -4.3882150253        0.9964908725
 C       -11.5030394662       -3.6111552378        2.3021444503
 C       -14.2478057646        1.2296269145       -0.5353710694
 C       -13.1170494914        2.6477439391       -2.1928160758
 C        -9.0095118432        2.5449385038        3.8617875966
 C        -8.4110955512        4.8442464198        3.1903831461
 C        -6.9793953701        3.3633336545       -3.7834836197
 C        -4.5659243449        3.0391123532       -2.7932014584
 C        -5.6860958875        9.3756137611        0.5530359567
 C        -7.1520208744        8.5404164793        2.4429768795
 C       -13.2520654170       10.0006675919       -1.1113937623
 C       -13.9221770635        8.1459517950        0.4699673233
 H       -11.8909031722        9.0322994417       -3.3242642610
 H       -10.9028280784        7.6257913635       -3.1436030930
 H       -10.5854477700        8.9742009536       -2.1321100798
 H       -11.1600259798       11.1219791576        0.2425865147
 H       -10.2845893637       10.1385272785       -0.8584952745
 H        -9.5534129636        9.6079049776        1.9618478067
 H        -9.2235406471       11.3582561452        1.3195922615
 H        -5.8805594706        7.6162862113       -1.5013910380
 H        -7.5003888284        8.0397044907       -1.8969966069
 H        -7.9753981917        5.8081605756       -2.6623345639
 H        -7.5347454767        5.2446358974       -1.0404617034
 H        -4.6982337940        3.2618936284       -0.1488802704
 H        -5.5565775611        1.7946753419        0.5343704349
 H        -6.7372774046        4.5771807713        1.0121481825
 H        -5.5252221553        3.5949660958        1.9687659973
 H       -10.0492679754        5.3250344797        1.1962017637
 H       -11.3716176041        4.4734788767        2.1403017824
 H       -10.9041389264        3.8077303240       -0.8771823106
 H       -12.0838058556        5.0089998807       -0.3281975346
 H       -11.1800225191       -0.9807320803       -1.5350160272
 H       -12.9576222605       -0.8012683533       -1.1667166276
 H       -12.5446923275       -1.5230995366        0.8927151944
 H       -11.2736295334       -0.2516908473        1.2273072174
 H       -13.1698461562       -5.8066047235       -0.7489241412
 H       -12.3855730945       -5.9913260033        0.9098367315
 H       -11.4521372402       -6.1742323022       -0.5016087421
 H        -9.1107233344       -4.3554166782        0.0642568578
 H        -9.8797080906       -5.3609647377        1.1749639223
 H        -8.9216037781       -3.9370904517        1.7499218548
 H       -12.4605113043       -3.1601111133        2.1990202939
 H       -10.9414108834       -3.1114608180        3.0455123273
 H       -11.5590461221       -4.6900787216        2.5302070953
 H       -15.0654789639        1.9201412270       -0.3677964013
 H       -14.3295702201        0.6664617921        0.4030133671
 H       -14.5586972868        0.5206822595       -1.2345553248
 H       -13.5113561296        2.0029741283       -2.9673489625
 H       -12.1241113990        3.0577439715       -2.4513597194
 H       -13.7753981375        3.4820501358       -1.9995637191
 H        -8.7125849129        1.5070793219        3.6865178402
 H       -10.1081365266        2.4922480396        4.0323568522
 H        -8.4293750937        2.7972290002        4.7451249596
 H        -7.7070773435        4.9265175513        4.0365203883
 H        -9.4630188595        5.2292891043        3.5524258616
 H        -8.2319536537        5.5938890182        2.4151217249
 H        -6.3524110336        3.2406282233       -4.6357039579
 H        -7.8101411948        4.0452297959       -3.8911972615
 H        -7.4178335786        2.3698591377       -3.6305746510
 H        -3.8231912742        3.4476368394       -2.1472534745
 H        -4.2942317210        3.2153372006       -3.8144738790
 H        -4.5827189927        1.8984909134       -2.6612786240
 H        -5.3762208320        9.9905284574        1.4626118266
 H        -5.6977228045       10.0721392887       -0.2639061649
 H        -4.8485920795        8.6620720645        0.4226241813
 H        -7.1458503455        9.5028347504        2.9619783318
 H        -6.3455180917        7.8848687244        2.7187280801
 H        -8.1259295074        8.1060951951        2.6835425490
 H       -13.4636643268       10.7625689109       -0.3761440959
 H       -14.0484907218        9.9499184458       -1.8503603604
 H       -12.3965267444       10.3371926792       -1.6855181488
 H       -13.5601925997        7.2962605534        0.9617836376
 H       -14.7743179787        7.7967116035       -0.0915602476
 H       -14.3818051000        8.8780867122        1.0986223365
 Na       -8.8822464567        0.6455299557        0.3236973662
