117

 C       -11.4552785500        8.2182863060       -2.6932745853
 C       -12.2490779141        7.6842449780       -1.5177106507
 O       -12.5928759034        6.5146365732       -1.5086959896
 C       -12.7418484175        8.7527151976       -0.4404455823
 C       -11.5678271388        9.0664224822        0.5384408666
 O       -11.4590616220        8.4154504997        1.5947428829
 C       -10.7177821485       10.3064307512        0.1822880554
 C        -9.3979561197       10.2562227905        1.0515840450
 C        -8.1970102276        9.6857667663        0.2435850224
 O        -8.0100743911       10.0673145678       -0.9022247573
 C        -7.0997142348        8.7922130999        0.8273210183
 C        -7.2602869468        7.3593123696        0.0788909120
 O        -7.7378711266        6.4442501367        0.6950925922
 C        -7.0779159977        7.2615583154       -1.3944608939
 C        -7.2110646013        5.8224703900       -1.8388763166
 C        -5.8962157714        5.1113482010       -2.2697107201
 O        -4.9156747572        5.7744247105       -2.5431449265
 C        -6.0322375016        3.5122540805       -2.5161160669
 C        -6.5681045812        2.8162391090       -1.2162766582
 O        -7.4720286860        2.0170696158       -1.3212949615
 C        -5.6797550249        2.8515857932        0.0618992132
 C        -6.2935579787        3.5530828814        1.3389198192
 C        -7.3195205255        2.6519577934        2.0458428340
 O        -7.2612829692        1.4461945220        2.0009658253
 C        -8.5832820653        3.3283315781        2.7064348300
 C        -9.7412439052        3.2809582678        1.7138134284
 O       -10.1257273097        2.2197156310        1.3235267994
 C       -10.6472487825        4.4480131670        1.3173670692
 C       -11.5333911573        4.0187401137        0.1091162430
 C       -12.4105256590        2.8290859610        0.3510705708
 O       -12.7136396005        2.5651391358        1.4779885143
 C       -12.8987370164        1.9890210631       -0.9058137797
 C       -11.6759884712        1.0440122334       -1.0359440040
 O       -10.6185856841        1.5782409256       -1.3666970714
 C       -11.7481873394       -0.5061570482       -0.8186864200
 C       -11.4987974038       -0.9315198954        0.6298588406
 C       -10.5117583756       -2.0836946967        0.6896161232
 O        -9.3373745957       -1.8291002889        0.4078930532
 C       -10.9087058650       -3.5854421041        0.9871776329
 C       -11.7625900704       -4.1271912486       -0.2242276209
 O       -11.9865869035       -3.5378530858       -1.2997548511
 C       -12.3785252200       -5.5822169078       -0.0534558482
 C        -9.5724191529       -4.4191890605        0.9681067700
 C       -11.5943018733       -3.5462827340        2.3922924621
 C       -14.2130509570        1.2025927558       -0.5587204836
 C       -13.1588023209        2.7816043792       -2.2578865824
 C        -8.9978100583        2.4514666718        3.9402552046
 C        -8.4221039781        4.8150300534        3.0988343650
 C        -6.8297284025        3.2572613217       -3.7757638036
 C        -4.6434988602        2.9405417221       -2.8617928498
 C        -5.7118169081        9.3735500807        0.4387643058
 C        -7.1148953755        8.5220459307        2.3300109419
 C       -13.1811559843       10.0157703884       -1.2622852294
 C       -13.9181017958        8.2045815127        0.3833437062
 H       -11.9931827488        8.9640131063       -3.3018512885
 H       -11.2252915425        7.3654328872       -3.3106492121
 H       -10.5693072841        8.6651048637       -2.2872672136
 H       -11.3778248879       11.2252943009        0.3147148258
 H       -10.4112731124       10.3408570115       -0.8936956024
 H        -9.7350671838        9.6785842829        1.9242295770
 H        -9.0675302855       11.3392239143        1.3648280943
 H        -6.0845526757        7.5923398597       -1.6462860999
 H        -7.7121673034        7.9459879463       -1.9629190587
 H        -7.7339143102        5.7216497515       -2.8334512827
 H        -7.7427125003        5.1881703222       -1.1225112492
 H        -4.6781338787        3.3236165541       -0.0969736495
 H        -5.5432341050        1.8396398044        0.4375942416
 H        -6.8289827851        4.4424582303        1.0947723394
 H        -5.5425562757        3.6959571186        2.1076166014
 H       -10.0125362643        5.2558295938        0.9295972075
 H       -11.1679025176        4.7568941012        2.2288311048
 H       -10.8276775165        3.9094216830       -0.7030858900
 H       -12.1432483219        4.9140662649       -0.2153895978
 H       -10.9524252605       -0.8906739721       -1.4688035732
 H       -12.7310015976       -0.8277858807       -1.1768029264
 H       -12.4942989288       -1.1687244823        0.9119648750
 H       -11.0604562731       -0.1068097325        1.2870635020
 H       -13.1214046877       -5.8218996084       -0.7966966571
 H       -12.7825875661       -5.7497988765        0.9460368332
 H       -11.5775019105       -6.3167683640       -0.1061714587
 H        -9.0953446748       -4.0670356034        0.0289296345
 H        -9.7778750871       -5.4783242561        0.9471230967
 H        -8.9655229391       -4.1079124117        1.8185163224
 H       -12.5494179721       -3.0764736257        2.2639413618
 H       -10.9966392713       -2.8533887329        2.9974940487
 H       -11.5652338120       -4.5192362908        2.8570884945
 H       -15.0757992263        1.8665931761       -0.3844475010
 H       -14.2112389676        0.7531285037        0.4156126473
 H       -14.5024660763        0.3831630279       -1.1607271987
 H       -13.5748533497        2.0152333712       -2.9423017412
 H       -12.2302722554        3.1091096345       -2.6406337725
 H       -13.8616001316        3.6063181230       -2.1355952511
 H        -8.8416347635        1.4063206735        3.6867147363
 H       -10.0406712505        2.5751494395        4.2078653403
 H        -8.3795293733        2.5800116244        4.7847177518
 H        -7.6683728531        5.1048066589        3.8610723793
 H        -9.3362153041        5.2209002731        3.4278107244
 H        -8.2854443193        5.3250714697        2.1687297185
 H        -6.1190286639        3.1373056309       -4.6349277645
 H        -7.6202376059        3.9852104896       -3.9266399602
 H        -7.2956663054        2.2170340245       -3.6923212515
 H        -3.9374648062        3.0024507704       -1.9509905109
 H        -4.2241499480        3.5084209322       -3.6638375217
 H        -4.7038241988        1.9451674123       -3.1387495851
 H        -5.4173169404       10.3084670459        0.9464882307
 H        -5.6733491483        9.5739251022       -0.5839937907
 H        -4.9810248484        8.6001162276        0.6459876604
 H        -6.9744606038        9.4341563518        2.9201260063
 H        -6.3777058621        7.7456006699        2.5039863875
 H        -8.1818360586        8.2174902690        2.5942747214
 H       -13.6833779543       10.7989477213       -0.7135904448
 H       -13.8819816484        9.6511441596       -2.0294003216
 H       -12.4015946314       10.4272166784       -1.8472844540
 H       -13.6594183203        7.2411649797        0.8439349484
 H       -14.7956573407        7.9834560181       -0.1821352046
 H       -14.3106741795        8.9531521623        1.0808267748
 Na       -8.8919267923        0.5362463278        0.2423979910
