117

 C        -1.1861137244        7.0420130005        2.3099163539
 C        -1.4959570545        8.5160578902        2.7528745679
 O        -1.0045769172        8.9787430848        3.7692820076
 C        -2.5091886304        9.3584598764        1.9118888832
 C        -3.8815445368        8.5099046798        1.8937617315
 O        -4.3045578486        8.0162342346        0.8684965688
 C        -4.7081378039        8.4378280070        3.1369692869
 C        -5.5695732153        7.1200129090        3.2831357882
 C        -7.0388531885        7.3639323129        3.2699059115
 O        -7.4028684555        8.4566638306        2.8934496554
 C        -8.1049593907        6.2729234326        3.5763012538
 C        -9.4703845914        6.4796352574        2.8516850738
 O       -10.4630656095        6.7222934126        3.5014787641
 C        -9.4529575580        6.3819392470        1.3683574029
 C       -10.8509669677        6.5848019842        0.7936821283
 C       -11.5398711001        5.1520423091        0.8694945998
 O       -10.8440623487        4.1637256727        0.6850445724
 C       -13.1209461594        4.9693995969        1.1317053601
 C       -13.7225674102        4.1537632509       -0.1632419353
 O       -13.0841477404        3.7871958488       -1.1332462190
 C       -15.2777720572        3.9980539413       -0.0589721449
 C       -15.5834349440        2.5511163547       -0.6490283780
 C       -14.6455977654        1.4639754478        0.0461363929
 O       -13.9982517257        1.8792569451        0.9933703948
 C       -14.6357719518       -0.0758656485       -0.3098204709
 C       -13.5330272613       -0.4495517290       -1.3417324017
 O       -12.3951931035        0.0353682093       -1.2852198089
 C       -13.8975137662       -1.5390090087       -2.3780241740
 C       -12.8565401585       -1.5421018506       -3.5244997421
 C       -12.8845569669       -0.2090242592       -4.3143125027
 O       -13.6696708876        0.6735287083       -4.1124975566
 C       -11.6397547914        0.0539111146       -5.3259020427
 C       -10.4733696782        0.4372398788       -4.3437870360
 O       -10.1006807049       -0.3724413359       -3.5288928993
 C       -10.0682892769        1.9232328011       -4.2331689991
 C        -8.7475414603        1.9853175763       -3.4138302150
 C        -9.0672410767        2.0494901898       -1.9666773760
 O       -10.1856746567        2.5309643038       -1.7172558315
 C        -8.0881582437        1.5696609128       -0.8107639875
 C        -8.9113171165        0.3661863118       -0.2539804060
 O        -9.9001567390        0.5316660898        0.4076692175
 C        -8.5660712511       -1.0095345091       -0.7211122403
 C        -6.6915575629        1.1794942262       -1.3609486946
 C        -7.8455143682        2.7061696967        0.2732635953
 C       -11.1886025781       -1.0547087805       -6.3397159217
 C       -12.2020050977        1.1716388379       -6.2424863237
 C       -14.0679428029       -0.8069229189        0.9252583261
 C       -16.0555587697       -0.6119449355       -0.6740208311
 C       -13.4706117957        4.3044910036        2.4594274270
 C       -13.6197735279        6.4039974193        1.1195351588
 C        -7.5651053828        4.8132440939        3.2831061697
 C        -8.2870586716        6.3660932058        5.0875720134
 C        -2.7004354064       10.6901508017        2.6996810172
 C        -1.9980045873        9.7073363473        0.4570998085
 H        -0.6032564984        6.4894232965        3.0800481402
 H        -0.7123921293        6.9557462446        1.2961842673
 H        -2.1286236561        6.5023286446        2.1375195944
 H        -5.5992578155        9.2131919258        2.9847236287
 H        -4.2941240945        8.6893309144        4.0891214511
 H        -5.2388500898        6.6680034846        4.1897431674
 H        -5.3530758289        6.4085972699        2.5137735943
 H        -9.1301555107        5.3742823813        1.1812221823
 H        -8.6728367110        7.0723998086        1.0265865079
 H       -10.8510243559        6.9834976215       -0.2234449164
 H       -11.2986933259        7.3411397829        1.3985346622
 H       -15.7740493354        4.8431878590       -0.5833449034
 H       -15.6590516232        3.9882891165        0.9937440053
 H       -15.1323593961        2.4703186667       -1.7124976685
 H       -16.5865161319        2.2222777527       -0.6792123129
 H       -14.9744235916       -1.4591319525       -2.7776893057
 H       -14.0441059472       -2.5431190814       -1.8455630184
 H       -12.8268147301       -2.4028718483       -4.2307895996
 H       -11.8441319639       -1.6109371596       -3.0165504589
 H       -10.9700474686        2.4285000768       -3.7908176852
 H        -9.8458224804        2.4416139125       -5.1965870728
 H        -8.1408703390        2.8065199178       -3.7629472334
 H        -8.2017456322        1.1118904798       -3.7319478047
 H        -9.3111997877       -1.1474223086       -1.5201395255
 H        -8.9132132762       -1.6470410441        0.1206120325
 H        -7.4920325252       -1.0785173708       -0.9031717424
 H        -6.1649435561        2.0575715219       -1.7073123488
 H        -6.7389012234        0.3954345103       -2.1154749813
 H        -5.9857618207        0.7765692769       -0.5506267124
 H        -8.8760404200        2.8503703153        0.6985863301
 H        -7.4714902894        3.6294650126       -0.1118703129
 H        -7.0270737376        2.3949110275        0.9926259481
 H       -11.9900405574       -1.5904006065       -6.8238656483
 H       -10.6655896329       -1.8409952032       -5.6960466393
 H       -10.5352967556       -0.7532468420       -7.1073710972
 H       -12.7613165581        2.0073881209       -5.7182293762
 H       -12.9027880926        0.6562317717       -6.8684023098
 H       -11.4328856695        1.6574738293       -6.8648697591
 H       -14.5109083084       -0.4619463531        1.8796664896
 H       -12.9808228179       -0.6192364734        0.9621517500
 H       -14.3374031397       -1.8593067717        0.9996302226
 H       -16.7356522674       -0.2806747805        0.0379506847
 H       -16.1907866467       -1.6777947592       -0.7176617707
 H       -16.3551576178       -0.0917662428       -1.6109885593
 H       -14.5311843736        4.3124918912        2.8419489274
 H       -12.8535486053        4.7738500348        3.2725336703
 H       -13.1573304995        3.3281422128        2.4380421623
 H       -13.5009607013        7.0558552623        0.2412791646
 H       -13.3555397633        6.7966168591        2.0991898579
 H       -14.6757524518        6.3501355409        1.1783417121
 H        -6.6433444448        4.6313833073        3.8186100790
 H        -7.3536120246        4.7368996231        2.2385357179
 H        -8.3442998631        4.0987853921        3.5341921040
 H        -9.3146079851        6.3921472337        5.4756719616
 H        -8.0197034193        7.3767950098        5.4062717106
 H        -7.6429460933        5.6943964993        5.6639478839
 H        -2.5041088156       10.4556857881        3.7908819373
 H        -3.7073140398       11.1133854960        2.4396929921
 H        -1.9605498223       11.3435576156        2.2569135503
 H        -2.4912910291        9.0346842620       -0.2811364249
 H        -0.8823300725        9.5700031726        0.4493561298
 H        -2.1725218980       10.6797712057        0.0307464201
 Na      -11.7255049325        2.0357072486       -0.1052184747
