117

 C       -11.4373857466        7.9044755609       -2.7585131603
 C       -12.3525590108        7.6518108174       -1.5831935691
 O       -12.7334864376        6.5289418327       -1.2510277235
 C       -12.6649160008        8.8725318039       -0.6832129442
 C       -11.4730781081        8.9911168536        0.2519454478
 O       -11.1242278317        8.0095139322        0.9230001738
 C       -10.7597521219       10.4176073729        0.3456484581
 C        -9.3944923484       10.1567911523        0.9465672617
 C        -8.4152016727        9.5541382582       -0.0331859695
 O        -8.4518439171        9.7997970037       -1.2644441656
 C        -7.1609047907        8.7281202898        0.4817700631
 C        -7.3832325250        7.2464862893       -0.1552245955
 O        -7.8901108038        6.3583453147        0.5194185985
 C        -7.1642592221        7.1469020675       -1.6433233358
 C        -7.3173288171        5.7247610588       -2.1658788925
 C        -5.9560578083        4.9955691136       -2.2749423732
 O        -4.9368248829        5.6253265145       -2.0970722286
 C        -5.8674925826        3.3633096457       -2.3635998020
 C        -6.3893121463        2.7323753693       -1.0365081825
 O        -7.4897747766        2.2509421578       -0.9867381376
 C        -5.6153147068        2.9649151631        0.2094064408
 C        -6.4789867246        3.6328214647        1.3464310044
 C        -7.4343025107        2.5574672898        1.8823938521
 O        -7.3252324660        1.3843663918        1.6572436611
 C        -8.5848857113        3.0792643890        2.9967760894
 C        -9.8134811198        3.0583852058        2.1018961863
 O       -10.1684755520        2.0470148352        1.5476864449
 C       -10.5058354824        4.3847001735        1.7387264382
 C       -11.3533444084        4.0881642944        0.4307212466
 C       -12.4914042281        3.0326092947        0.4829210915
 O       -13.1500494721        2.9669535984        1.5036450595
 C       -12.7722838797        2.0834521390       -0.7236346712
 C       -11.5112394269        1.1665831528       -0.9456739713
 O       -10.4251071631        1.6129345040       -1.2784417683
 C       -11.5900366631       -0.3942243473       -0.9894772584
 C       -11.6030964713       -0.9549315084        0.4381033965
 C       -10.5341161010       -1.9649358428        0.6732597983
 O        -9.3872814933       -1.6264401080        0.5923980210
 C       -10.9336591240       -3.4056096040        1.0765642907
 C       -11.8611383290       -3.9289477111       -0.0491610069
 O       -11.8414365604       -3.3246814260       -1.1217586898
 C       -12.8661601932       -5.0686709177        0.1629610270
 C        -9.7169758408       -4.3070337932        1.2781835327
 C       -11.7006827649       -3.2731344167        2.4053740841
 C       -13.9920513859        1.2804888383       -0.5177029182
 C       -12.8592528236        2.9568400041       -1.9707700272
 C        -8.7938447915        1.9684012720        4.0296190838
 C        -8.2935253322        4.4982946146        3.4387102215
 C        -6.8590934696        2.8543864180       -3.4972098521
 C        -4.4083763829        2.8726759263       -2.7324470670
 C        -5.8765927118        9.3626421008       -0.1600306163
 C        -7.0613459870        8.6187819751        2.0131862934
 C       -12.8787330121       10.0701935613       -1.5889271092
 C       -13.9791076381        8.6810034512        0.2011675943
 H       -11.7841528299        8.5942236468       -3.5201957132
 H       -11.2383546611        6.9831599788       -3.2474120569
 H       -10.6617146404        8.3787226521       -2.2785672574
 H       -11.3340416600       11.0907870435        1.0365377304
 H       -10.5966623510       10.8669144909       -0.6625265024
 H        -9.6296899642        9.3944275711        1.7481261884
 H        -9.0160772807       11.1957409917        1.3603809017
 H        -6.1697886977        7.5268859335       -1.9154092907
 H        -7.8951199659        7.8205621365       -2.1528178521
 H        -7.8320782736        5.6526028075       -3.1476766984
 H        -7.9551479253        5.1158495783       -1.5461607587
 H        -4.8213517983        3.7433632166        0.0508457959
 H        -5.1819675001        1.9758979254        0.5574398389
 H        -7.0436106881        4.4829373563        1.0029161897
 H        -5.9197192338        3.9454099195        2.2421083025
 H        -9.6853264925        5.1155395802        1.5847790756
 H       -11.2052042215        4.6517666893        2.5567004332
 H       -10.6160979280        3.8037734480       -0.3528655575
 H       -11.8530179765        5.0956238511        0.2002469315
 H       -10.6669245086       -0.7261647439       -1.5176302809
 H       -12.3682976065       -0.7173059559       -1.6983258752
 H       -12.6036925450       -1.2360474034        0.6637593208
 H       -11.3712674608       -0.0796317365        1.1430109645
 H       -12.8852003799       -5.6047604534       -0.7567082333
 H       -13.8695486028       -4.6368169611        0.2779990329
 H       -12.7952688063       -5.7819198314        1.0503229070
 H        -9.2317473245       -4.3802672185        0.3386195506
 H        -9.9945256013       -5.2094817029        1.7673705133
 H        -9.1081922359       -3.8583390266        1.9592413655
 H       -12.5285817220       -2.5714924544        2.3953982645
 H       -10.9554420834       -2.9711123898        3.1465878937
 H       -11.9567543603       -4.2665564538        2.6762088816
 H       -14.8058631327        1.9054250446       -0.1286269825
 H       -13.8626020013        0.5248958726        0.2176317712
 H       -14.4003075046        0.7401369800       -1.3801859363
 H       -13.1750794709        2.2739579451       -2.7919199252
 H       -11.9420655098        3.4140939509       -2.2495158467
 H       -13.6496384221        3.6906171751       -1.7735856413
 H        -9.0522857039        0.9788869674        3.6105331934
 H        -9.4616183121        2.2987752708        4.8237338893
 H        -7.9057659949        1.7865237837        4.6554537998
 H        -7.3776249467        4.5758899961        4.1371495076
 H        -9.0769349864        4.8541056363        4.0487916593
 H        -7.9878987251        5.0727897405        2.5275218114
 H        -7.0167327420        3.6363956963       -4.2202614063
 H        -7.8241616290        2.6767515831       -3.1283359607
 H        -6.3896268939        2.0499476263       -4.0110890097
 H        -4.2222862833        1.7863785327       -2.4535171428
 H        -3.6748119616        3.5211597292       -2.2334046995
 H        -4.1932811693        2.9216899089       -3.7394533196
 H        -5.7247190685       10.3891776945        0.1993883860
 H        -6.0272939714        9.5093447974       -1.2507268354
 H        -5.0376856536        8.6525060068       -0.1158759126
 H        -7.0579880261        9.5731896884        2.4777598439
 H        -6.1256789783        8.1290574445        2.1692699746
 H        -7.8941801110        8.0393638026        2.4270889789
 H       -12.9577603400       11.0017858189       -1.0187466825
 H       -13.8659048281       10.0137893693       -2.0807766719
 H       -12.0945670296       10.2400224758       -2.3038084123
 H       -13.8181376080        8.0281471611        1.0733633477
 H       -14.7944718191        8.2182432963       -0.2667083434
 H       -14.2669092483        9.6373454767        0.5926927044
 Na       -8.6562149907        0.5039421838       -0.1090927703
