117

 C       -11.4084370484        7.8713525624       -2.7130973956
 C       -12.4216011333        7.6227375965       -1.5890092955
 O       -12.7737948718        6.4839440719       -1.3015698804
 C       -12.7494425898        8.9354130358       -0.7475367828
 C       -11.4326606332        8.9234873252        0.2207603772
 O       -10.9889493408        7.9773605847        0.7594570422
 C       -10.7091576754       10.2546446251        0.3177190572
 C        -9.3090773422       10.1589201764        0.9668666656
 C        -8.4503104934        9.5554839622       -0.0597191357
 O        -8.6213748232        9.6466698457       -1.2847613799
 C        -7.2597191949        8.6394317879        0.3735767074
 C        -7.5006746401        7.2790053039       -0.2482311354
 O        -7.8009685698        6.3284615433        0.4837469522
 C        -7.1993674104        7.0874738103       -1.7270484181
 C        -7.3128335911        5.6429558391       -2.2290801760
 C        -5.9231864828        4.9277304535       -2.1364608357
 O        -4.9026553550        5.5404093108       -1.9702772551
 C        -5.8426764413        3.3800307155       -2.3934048501
 C        -6.3525468702        2.8189096096       -1.0265630133
 O        -7.4492507446        2.2608335667       -1.0154592579
 C        -5.5000243309        3.0145893655        0.2031136033
 C        -6.3426874768        3.5915086461        1.3716381253
 C        -7.3194428056        2.5744191076        1.9750580574
 O        -7.2184194105        1.3595664633        1.7174783543
 C        -8.5062139668        2.9992785152        2.9248326034
 C        -9.8606629264        2.9618292042        2.0266385163
 O       -10.3095462086        1.9109197301        1.5831225537
 C       -10.7103091765        4.3316947564        1.7970997876
 C       -11.3640223479        4.1710280701        0.4682911855
 C       -12.4022935533        3.0700344782        0.6006513658
 O       -13.2271762452        3.0372999781        1.4704890027
 C       -12.6905765256        2.0623605845       -0.6760246653
 C       -11.4993921484        1.1568538735       -1.0578363456
 O       -10.3888971943        1.6934628313       -1.2396060456
 C       -11.6118522394       -0.3564101419       -1.0359190769
 C       -11.6844023471       -0.9183552592        0.4446465216
 C       -10.5014009705       -1.8678053634        0.7019361062
 O        -9.3482180304       -1.5782473681        0.5835833290
 C       -10.9416025565       -3.3289249518        1.1700993632
 C       -11.9590618287       -3.8324631121       -0.0192754501
 O       -11.7837845732       -3.3074195216       -1.0946325400
 C       -12.9187526426       -4.9714099459        0.1166718929
 C        -9.7615462293       -4.3063131537        1.2682194289
 C       -11.6864699594       -3.1225284139        2.5704869749
 C       -14.0250500738        1.3246114053       -0.4526518782
 C       -12.7724118480        3.0415485944       -1.9817767766
 C        -8.5735681105        1.9116414819        4.0125191694
 C        -8.3161620531        4.3289668593        3.6674347039
 C        -6.8059992603        2.8954653571       -3.6124199692
 C        -4.4225075240        2.8872517421       -2.6275116905
 C        -5.9887798643        9.3716389016       -0.3085579060
 C        -7.0381334132        8.6164979281        1.8688081020
 C       -12.8389757641       10.1679623453       -1.6592370218
 C       -14.0072615457        8.8458314207        0.1264133116
 H       -11.9545736121        8.2546479644       -3.5390012881
 H       -11.1256385961        6.8957304650       -3.0517445164
 H       -10.6721576217        8.5788744949       -2.4525927115
 H       -11.3499179246       10.8954332969        0.9860491616
 H       -10.5268321729       10.7273803463       -0.6826281179
 H        -9.3906352361        9.5882100958        1.9321331390
 H        -9.0736542878       11.1997641532        1.0831811698
 H        -6.2165180128        7.4491056676       -1.9622002083
 H        -7.8916252409        7.6858544430       -2.3173411534
 H        -7.6673636749        5.5566080846       -3.2946127136
 H        -8.0943004537        5.0586533445       -1.7227396358
 H        -4.7569955856        3.7624531498        0.0490433001
 H        -5.0629786594        2.0323398815        0.4810699416
 H        -6.9791488182        4.3831824049        1.0680871353
 H        -5.7349385346        3.9933305898        2.2025068265
 H       -10.0175387518        5.1517515372        1.8334811472
 H       -11.5184777364        4.3740767678        2.5381744335
 H       -10.5870826384        3.8499601254       -0.2612976132
 H       -11.8141458809        5.1234575777        0.2376735615
 H       -10.8107496008       -0.8176815553       -1.6214632803
 H       -12.4827512588       -0.6009773327       -1.6522914182
 H       -12.6807368773       -1.4053647181        0.5108042895
 H       -11.7501123938       -0.0934568414        1.1913721456
 H       -12.9934718884       -5.7104016265       -0.6806053249
 H       -13.8806203889       -4.5358553495        0.2772100638
 H       -12.7565564591       -5.4101259894        1.1202393031
 H        -9.3258290564       -4.4077448239        0.3049884922
 H       -10.0901882905       -5.2154886523        1.7741221934
 H        -9.0443757814       -3.9172297886        1.9654719288
 H       -12.5957754645       -2.5013204459        2.4677727194
 H       -10.9971270515       -2.6751145394        3.2823125133
 H       -11.9436544048       -4.0858428031        2.9484432424
 H       -14.7162798840        2.0600292352       -0.1372221621
 H       -13.9956540610        0.5758816608        0.3261263490
 H       -14.5397030381        0.8143997600       -1.3065861957
 H       -12.9669113851        2.4114514944       -2.8395085253
 H       -11.8067777384        3.5267809258       -2.1580162409
 H       -13.5578175569        3.7810462167       -1.8518634370
 H        -8.6302990675        0.9130061139        3.6368647503
 H        -9.3886699296        2.1025731578        4.6633394633
 H        -7.7695189734        1.9427230799        4.7649748374
 H        -7.5652735430        4.2143091297        4.3917564690
 H        -9.2188924216        4.4296567636        4.2610700746
 H        -7.9921345342        5.1670521216        3.0565779160
 H        -6.8319291765        3.5987387483       -4.4432273462
 H        -7.8864920197        2.9460230165       -3.2974834494
 H        -6.4695908997        1.9295842359       -3.9568251461
 H        -4.3903154881        1.8936977355       -2.9051951947
 H        -3.7432102604        3.0725060180       -1.7941414149
 H        -3.9699071850        3.4582748913       -3.4979869137
 H        -5.5955049520       10.0509542069        0.3740042024
 H        -6.2433159209        9.9984781481       -1.2061188743
 H        -5.2823374621        8.6758380263       -0.6937348195
 H        -7.0126955732        9.6948519201        2.1383303986
 H        -6.0480583295        8.1377381926        2.1237202683
 H        -7.8497435156        8.1327282365        2.3804041378
 H       -12.9994485061       11.1314440321       -1.1917062879
 H       -13.6822822078       10.0467824132       -2.2956326455
 H       -11.9372785458       10.2811229619       -2.2665123183
 H       -13.7831650903        8.1638963658        0.9415989402
 H       -14.9064305072        8.4072451257       -0.2923378639
 H       -14.1916625909        9.7639366439        0.6402891417
 Na       -8.8161672733        0.4901106802        0.0234820174
