117

 C       -11.4496055407        7.5644715430       -2.7951137844
 C       -12.4305087242        7.6408979314       -1.6798929821
 O       -13.0464972710        6.6496084723       -1.3508811633
 C       -12.6769378105        8.9244936190       -0.8882759950
 C       -11.4322381359        9.0913272984        0.0572914554
 O       -10.8890547878        8.0312962980        0.4628863974
 C       -10.8643194015       10.3893397250        0.5439622137
 C        -9.3082028688       10.1746961516        0.8924776135
 C        -8.5270697613        9.4162460546       -0.2075774894
 O        -9.0022802566        9.3703939098       -1.3477912482
 C        -7.1977635824        8.6165354448        0.1357626145
 C        -7.3352857872        7.1716166708       -0.4416693589
 O        -7.6181020787        6.2866146020        0.3363280580
 C        -7.3698373628        7.0384133462       -1.9090992549
 C        -7.2241068494        5.6007390280       -2.3312420318
 C        -5.8766839201        4.9089958049       -2.0869197427
 O        -4.9287637974        5.5369797641       -1.6503395527
 C        -5.7771939487        3.2885051629       -2.3773367892
 C        -6.3809776348        2.7322682566       -1.0090425018
 O        -7.3993354635        2.1098019667       -1.0083761497
 C        -5.5712716131        3.0634972766        0.2354561024
 C        -6.2748231647        3.5770630847        1.4837394597
 C        -7.2944032960        2.4901560942        1.9938965535
 O        -7.0477776693        1.3887758037        1.6645850310
 C        -8.4758790119        2.7612782322        3.0072104105
 C        -9.7862556069        2.8085647618        2.1755976275
 O       -10.1440959160        1.7100662785        1.8019403649
 C       -10.5794688445        4.1685339417        2.0492903734
 C       -11.2839836804        4.1825282733        0.5839400745
 C       -12.4813848022        3.1307771873        0.5276661422
 O       -13.2747336474        2.9670814106        1.4458883005
 C       -12.7604937858        2.3266520277       -0.8374517936
 C       -11.5107132745        1.3785170470       -1.0102179509
 O       -10.3757526358        1.7684802293       -1.1359416985
 C       -11.6834337856       -0.1519515207       -0.9029938229
 C       -11.6852424129       -0.7289698344        0.5059128448
 C       -10.6121329200       -1.7619792214        0.7359007703
 O        -9.4144235106       -1.5138471780        0.5991457282
 C       -11.0779208011       -3.2149198946        1.2044667576
 C       -11.9225448767       -3.7400587075        0.0732257102
 O       -11.7284940519       -3.2730027766       -1.0584717348
 C       -13.0335130769       -4.8274761125        0.4429332034
 C        -9.8618383067       -4.2008449614        1.3117549434
 C       -11.7612242127       -3.1218307713        2.5919248422
 C       -14.0409861388        1.4747662589       -0.6322418374
 C       -12.9012412154        3.2018086540       -2.0699372861
 C        -8.5611388463        1.5417273000        3.9659939557
 C        -8.2496173593        4.1558430067        3.7212348345
 C        -6.6706934268        2.9408007289       -3.5948962918
 C        -4.1984716365        2.9162478883       -2.6428346264
 C        -5.9705593125        9.3213563534       -0.5233743112
 C        -6.9314518405        8.5302910763        1.6308886709
 C       -12.8334947437       10.2055323185       -1.8247762758
 C       -13.9333139316        8.7522897534        0.0218544996
 H       -11.9752060317        7.6730596970       -3.7983964302
 H       -10.9964913091        6.5520723739       -2.8221321457
 H       -10.7902409265        8.4476320346       -2.6443759094
 H       -11.3776873700       10.5687159758        1.4558414667
 H       -11.0020513105       11.1249726675       -0.1911276208
 H        -9.3542934836        9.6502886118        1.7800392351
 H        -8.8391024893       11.1532444650        1.0928688603
 H        -6.5812053226        7.6556312957       -2.3880369860
 H        -8.3467619651        7.3785122790       -2.2654951464
 H        -7.4343464106        5.4670483326       -3.3720603493
 H        -8.0172333886        4.9723267123       -1.9002911049
 H        -4.8213291578        3.8886289962        0.0968339965
 H        -5.0795560483        2.1703996547        0.5573263474
 H        -6.8262512864        4.5605055387        1.3959541044
 H        -5.5237670558        3.7224976814        2.2720686447
 H        -9.8845858061        4.9903371768        2.2446642057
 H       -11.3089873512        4.0624422400        2.8373544737
 H       -10.5308272989        3.9600488238       -0.1167744065
 H       -11.7304152283        5.1786338902        0.4756980605
 H       -10.7677010272       -0.4378261253       -1.4240735519
 H       -12.3973452772       -0.6543118843       -1.5514259864
 H       -12.6897600187       -1.0444771803        0.7093503065
 H       -11.5870642134        0.0770841755        1.2230110404
 H       -13.0187266896       -5.5430564051       -0.3356908970
 H       -14.0750577692       -4.4769696118        0.5022125290
 H       -12.8746808308       -5.3448881611        1.4030604684
 H        -9.3688296142       -4.1581603791        0.2775167584
 H       -10.2086485992       -5.2221011648        1.6196775324
 H        -9.1406693881       -3.8838296670        2.0907982931
 H       -12.7107448928       -2.5669574446        2.5718322912
 H       -11.0125981245       -2.6359849359        3.2433037545
 H       -12.0264396393       -4.1343713789        2.9926324098
 H       -15.0273614165        2.0271923165       -0.6421308755
 H       -13.9055672115        0.9187478681        0.3162627230
 H       -14.2308624462        0.7321689450       -1.3806848712
 H       -13.2228793523        2.6566942553       -2.9669167816
 H       -11.9489605046        3.6594749823       -2.2237406254
 H       -13.6173546370        3.9781855727       -1.8185788167
 H        -8.7102518979        0.6373118687        3.3630287969
 H        -9.4556270603        1.5306325693        4.6011225093
 H        -7.7671679182        1.4481104360        4.6567912715
 H        -7.2048643680        4.2651765241        4.1411977250
 H        -9.0469985607        4.3112482213        4.3889218257
 H        -8.2804782642        4.9180439604        2.9517312497
 H        -6.0820000026        3.2526925627       -4.4990395476
 H        -7.5728200254        3.5020897639       -3.7553429074
 H        -6.8261165455        1.8193552397       -3.6183209341
 H        -4.0854287313        2.2667550057       -3.5980236884
 H        -3.7137673171        2.3020523134       -1.8753990349
 H        -3.6199103649        3.7458609200       -2.8171059639
 H        -5.6127644333       10.1004930700        0.1889385737
 H        -6.1503879840        9.7524943619       -1.4626240786
 H        -5.1453579067        8.6151128476       -0.6730952796
 H        -6.8122088221        9.5050334098        2.1125891871
 H        -6.0503324746        7.9257899274        1.7784362762
 H        -7.7995366631        7.9098393659        2.0187188825
 H       -13.0947361529       11.0958685318       -1.2639355801
 H       -13.6055319722       10.0893232041       -2.6093798030
 H       -11.9082967018       10.4704164001       -2.2878640405
 H       -14.0419065224        7.7095772017        0.4067535736
 H       -14.8169502860        8.8278740805       -0.6108542795
 H       -13.9767561602        9.3096133674        0.9924440238
 Na       -8.8906162502        0.7938932024        0.4081938621
