117

 C       -11.4615294249        7.4657485860       -2.9084137208
 C       -12.5283873429        7.5610861722       -1.7303795769
 O       -13.3104428462        6.6379174740       -1.5905691840
 C       -12.6305057745        8.8931858561       -0.9471346384
 C       -11.3685022496        8.9706759389       -0.0661007266
 O       -10.8753879846        7.9493466873        0.2693794056
 C       -10.8471600811       10.3753388056        0.5560869356
 C        -9.2715495007       10.1673986949        0.8101673919
 C        -8.6074071225        9.3337666648       -0.2830921182
 O        -9.1447289613        9.2662038927       -1.3345320439
 C        -7.2216624399        8.5715280169       -0.0394766534
 C        -7.2682452126        7.1107940938       -0.5977396915
 O        -7.3356603314        6.1253640126        0.1337245595
 C        -7.3624865701        6.9928571554       -2.1426859483
 C        -7.2232259187        5.5258000539       -2.6338229730
 C        -5.8768156438        4.9124697649       -2.1448038760
 O        -5.1053350670        5.5420634384       -1.4551457736
 C        -5.6729148864        3.3235385328       -2.3389131194
 C        -6.2321081275        2.7850268875       -0.9793136639
 O        -7.1925799610        2.0013135753       -0.9994834316
 C        -5.4447964934        3.0059930552        0.2675544273
 C        -6.5014338907        3.4716310164        1.3558475396
 C        -7.2383384697        2.3390810133        2.0376843994
 O        -6.9519318691        1.1591609221        1.7576484439
 C        -8.3550734649        2.6605803061        3.0927602967
 C        -9.7965639232        2.7647313935        2.3251122307
 O       -10.2916758831        1.6914579137        2.0566527924
 C       -10.5855887701        4.1174274750        1.9936239376
 C       -11.2618128622        4.1102658915        0.6620098499
 C       -12.5016204829        3.0973969494        0.5935141902
 O       -13.2644372397        2.8758980853        1.4822333074
 C       -12.8056946933        2.4313202248       -0.8654214478
 C       -11.5916020862        1.5380689772       -0.9098779052
 O       -10.4194818124        1.9908505271       -1.0370991173
 C       -11.6436704066        0.0773716101       -0.7929459637
 C       -11.7937777331       -0.5960977862        0.6377048356
 C       -10.6860265930       -1.6455859400        0.8416556532
 O        -9.4894891939       -1.3273464198        0.7266227839
 C       -11.1235203766       -3.0710063287        1.2431546340
 C       -12.0923507053       -3.7704947813        0.1064584119
 O       -11.9597231039       -3.4053707523       -1.0380447481
 C       -13.1013073944       -4.7102568193        0.5599563253
 C        -9.8122219610       -3.8784410950        1.4051428164
 C       -11.8367671942       -3.0685793268        2.6215050517
 C       -14.2147275739        1.6792343303       -0.8649674626
 C       -12.8100219603        3.4687213073       -1.9814679388
 C        -8.4257587512        1.5204355653        4.1576595519
 C        -7.9387276456        3.9071030144        3.9908050041
 C        -6.4774860135        2.7282778710       -3.4527783240
 C        -4.2132265272        3.0137387476       -2.3544891573
 C        -6.2204388434        9.4409353110       -0.7395920940
 C        -6.9192533173        8.5440224037        1.4767625954
 C       -12.7638830783       10.0507531780       -1.9247396963
 C       -13.8650298866        8.9455432016       -0.0204897464
 H       -11.9628185644        7.7238681880       -3.8011257589
 H       -11.2131576291        6.4172300409       -3.0162568767
 H       -10.5750321860        8.1046305958       -2.7705132716
 H       -11.3792081738       10.5392526119        1.5203490822
 H       -10.9619689717       11.2000923251       -0.1961379439
 H        -9.2596726445        9.6595578297        1.8680529224
 H        -8.7295076080       11.1528657538        0.9181723955
 H        -6.6429623661        7.6118529731       -2.6777952853
 H        -8.4056431091        7.3114312350       -2.3876950807
 H        -7.3579404773        5.3470555694       -3.7160301049
 H        -8.0056104334        4.8998516462       -2.2176004745
 H        -4.7043391431        3.8072856255        0.1963108242
 H        -4.9796257914        2.0008897602        0.5570542862
 H        -7.1651742234        4.2423420828        0.9936191652
 H        -6.0639690155        3.9080359492        2.2710972440
 H        -9.8736518552        4.9357921466        2.0886343627
 H       -11.3360669793        4.1603485585        2.8318708071
 H       -10.4560535894        3.8189655900       -0.0995264614
 H       -11.6584854529        5.1288888184        0.5488880484
 H       -10.7237897542       -0.2665859018       -1.2949408640
 H       -12.4045723021       -0.3402898409       -1.4811334830
 H       -12.8580857225       -0.9440788438        0.7608590647
 H       -11.7566397652        0.1822853427        1.4017078541
 H       -13.6041782454       -5.2644867777       -0.3005463978
 H       -13.8886601452       -4.1520900638        1.0755622220
 H       -12.7465730437       -5.3903032607        1.2959806460
 H        -9.1534691200       -3.7601787286        0.6093835494
 H       -10.0624195917       -4.8994701992        1.5186645571
 H        -9.3207273060       -3.5186974029        2.3072891856
 H       -12.7937535142       -2.5671130212        2.4596780986
 H       -11.2912679622       -2.5775607050        3.4121082405
 H       -12.1702519431       -4.0503131568        2.9040025512
 H       -14.9841576815        2.3946710827       -0.8362514734
 H       -14.3783983958        0.9294676506       -0.0918878945
 H       -14.4182706525        1.2311709779       -1.8566815234
 H       -13.0965335322        2.9220923149       -2.8665661483
 H       -11.7377567387        3.7686246761       -2.0712581386
 H       -13.4431651044        4.3459516114       -1.8650803279
 H        -8.7583952937        0.5891511230        3.6701765872
 H        -9.1860006426        1.5572991843        4.9555558181
 H        -7.3999128601        1.3679670546        4.6088151148
 H        -7.0456325507        3.5610545136        4.4582486248
 H        -8.8499007196        4.2520411783        4.6283569195
 H        -7.6209265300        4.7882801912        3.4005373941
 H        -6.3579547347        3.1608546120       -4.3896666952
 H        -7.5383147168        2.8159067560       -3.1878700972
 H        -6.3312074830        1.6866024883       -3.4776024555
 H        -3.8358833435        3.1107103782       -3.3169207321
 H        -4.0407444221        1.9811225326       -2.1318002601
 H        -3.5559257831        3.7088881717       -1.7071778276
 H        -6.2822221625       10.4991885010       -0.4464338165
 H        -6.3312407323        9.3067961213       -1.8496807894
 H        -5.1686199971        9.1606511039       -0.4474557367
 H        -6.7761531969        9.5453390759        1.8084621168
 H        -5.9569896420        8.0635543234        1.6222715732
 H        -7.5978602016        7.9600884248        1.9801582266
 H       -12.7922641256       11.0352976066       -1.4312098994
 H       -13.7211924829        9.8990783515       -2.4005076588
 H       -12.0178166142       10.1444830673       -2.7532958427
 H       -14.1916552433        8.0722162102        0.4879075058
 H       -14.7197388663        9.2830878893       -0.6092379969
 H       -13.6745842357        9.5691150341        0.8157168290
 Na       -8.6832227535        0.8206992200        0.2992315661
