117

 C       -11.6428553356        7.2923840420       -2.9380422739
 C       -12.7288591558        7.4779011116       -1.8241096436
 O       -13.6871961857        6.7499536917       -1.7117766491
 C       -12.7157352301        8.9105571666       -1.0473540638
 C       -11.4845892623        8.7853948344       -0.1585007482
 O       -11.0971941084        7.7451601462        0.2596590083
 C       -10.8231695115       10.1101630179        0.3613538169
 C        -9.3820378022        9.7287344112        0.6600381786
 C        -8.6159313326        9.2288280093       -0.5351064499
 O        -9.0315182000        9.2417230219       -1.6999494149
 C        -7.1215090376        8.6378642532       -0.2873036424
 C        -7.2181508201        7.1751452070       -0.8504460999
 O        -7.3709456965        6.2280549760       -0.0936550295
 C        -7.2910886936        6.9758627518       -2.3496105062
 C        -7.1848550653        5.4434084437       -2.6188133778
 C        -5.8058476201        4.8680589229       -2.0754262137
 O        -5.0024454504        5.6035650806       -1.5341122331
 C        -5.5280741405        3.3306286515       -2.2760596729
 C        -6.1885185074        2.6382664206       -0.9769284348
 O        -7.1025419572        1.7818639333       -1.0532617871
 C        -5.5496123688        2.8767801860        0.4151845924
 C        -6.4864611392        3.4145065057        1.5221448774
 C        -7.2634758612        2.3103940331        2.2240227881
 O        -7.0699747338        1.1101974024        1.9702419555
 C        -8.3552434332        2.6447284521        3.3351173184
 C        -9.6800298598        2.7113707002        2.4704087081
 O       -10.0796898643        1.7451623847        1.8132685224
 C       -10.4516075105        3.9909178345        2.4506367356
 C       -11.2113917399        4.1769775303        1.1278644720
 C       -12.3891288455        3.1982979374        0.8162800907
 O       -13.0882856285        2.8118318777        1.7030322916
 C       -12.5740149781        2.5985930779       -0.6355176416
 C       -11.4934605642        1.4997024596       -0.8640546293
 O       -10.3124220814        1.8536554492       -1.0559759603
 C       -11.9264516678        0.0310596005       -1.0242882894
 C       -12.0759144134       -0.5701044304        0.4188563478
 C       -10.8488156923       -1.5071460850        0.8671051331
 O        -9.7037813211       -1.1363438490        0.8236035445
 C       -11.2405021533       -2.9152801468        1.3758354932
 C       -12.2244987932       -3.5877711234        0.3173971837
 O       -11.9654704647       -3.2159656082       -0.8100368899
 C       -13.1207837091       -4.7426425727        0.6525852959
 C       -10.0541099629       -3.8251640472        1.4456791329
 C       -11.8844885227       -2.7781715225        2.7551596214
 C       -14.0093202078        2.1578857936       -0.7768575101
 C       -12.3065059803        3.7298392869       -1.6772889501
 C        -8.6054968199        1.5066678572        4.3345818067
 C        -8.1451565485        3.8986500940        4.0779527766
 C        -6.1518997307        2.6346117370       -3.5426059635
 C        -3.9933730450        3.2299893231       -2.3210345796
 C        -6.0910790305        9.5000853199       -1.0442549874
 C        -6.8436699198        8.5182823911        1.1827330436
 C       -12.5677948564       10.0837778930       -2.0406208387
 C       -13.9708734270        8.9409796530       -0.1369618281
 H       -11.7649739065        8.1042988571       -3.6949635493
 H       -11.7711242493        6.2562660579       -3.3506994019
 H       -10.6179692844        7.2570032810       -2.5392083301
 H       -11.2713351270       10.4402168430        1.2556888835
 H       -10.7671533516       10.9053640626       -0.3242097145
 H        -9.2498915575        9.1099255059        1.6110537874
 H        -8.9163570354       10.6506879981        1.0142385457
 H        -6.4547809815        7.4520255080       -2.8574183931
 H        -8.2911485092        7.3335848085       -2.6860986050
 H        -7.2711443171        5.2028405904       -3.6986133283
 H        -8.0024104468        4.9384626611       -2.1493886457
 H        -4.7711919474        3.6033777834        0.3982104529
 H        -5.0905084499        1.9469352349        0.8597311882
 H        -7.1966166507        4.1745032040        1.1959623387
 H        -5.9793946519        3.9479940239        2.3874629693
 H        -9.6997161871        4.7491176039        2.6007680344
 H       -11.0997658444        4.0524706547        3.3257045771
 H       -10.4668356151        4.2703131926        0.3336216481
 H       -11.6902751827        5.1457614899        1.2858994999
 H       -11.1988743647       -0.6291594157       -1.5158529363
 H       -12.8922005775       -0.0367274120       -1.5395231736
 H       -12.9617176034       -1.1444237731        0.5586562652
 H       -12.1846171020        0.2640199210        1.1467690589
 H       -13.9243235147       -5.0329917491       -0.0535868014
 H       -13.5826928774       -4.4987712648        1.5726900794
 H       -12.5172476354       -5.6323967714        0.8701733382
 H        -9.6762389987       -4.1979134486        0.4743960803
 H       -10.3507235073       -4.8109416067        1.9361233151
 H        -9.2284252955       -3.2398257137        1.9142164235
 H       -12.8927424578       -2.2906926400        2.7982971659
 H       -11.2586084318       -2.2805892392        3.5331741766
 H       -12.0255835264       -3.7803371162        3.1327402596
 H       -14.6729699460        2.9861089621       -0.5990261729
 H       -14.2697074988        1.4429097648       -0.0002138067
 H       -14.2338763215        1.7458576726       -1.8369714309
 H       -12.6002418674        3.4152657646       -2.6722610281
 H       -11.2990194913        4.1048595416       -1.6358430293
 H       -12.9708778526        4.5313074366       -1.3870663699
 H        -9.0064653625        0.6012831141        3.9477679020
 H        -9.3754030853        1.8189995809        4.9688552201
 H        -7.7071761397        1.2167932410        4.8784801646
 H        -7.2240865518        3.8416213680        4.5765434015
 H        -9.0161293849        4.0277159135        4.7879079105
 H        -8.2428443621        4.7536086465        3.4255576849
 H        -5.8924892826        3.1883951852       -4.4745791756
 H        -7.2773083097        2.5805179693       -3.4043453302
 H        -5.9404262788        1.5683467136       -3.7066883944
 H        -3.6059178032        3.9816694866       -2.9121902755
 H        -3.6492868078        2.2912102098       -2.7685076505
 H        -3.5139830965        3.3674307106       -1.2649309240
 H        -5.9358497711       10.3897700872       -0.5428095093
 H        -6.6386833442        9.7739509135       -1.9640906580
 H        -5.1062450083        9.1337089231       -1.2089731556
 H        -6.8171930640        9.5158331857        1.6679124692
 H        -5.8212045456        8.0445647777        1.3478847233
 H        -7.5447943901        7.8096806418        1.6215219234
 H       -12.8588490351       10.9747347922       -1.5015012634
 H       -13.1404384353       10.0079513333       -2.9389872378
 H       -11.5489657299       10.1957916185       -2.3954817811
 H       -13.8086024799        8.3975199547        0.8172730418
 H       -14.8463479252        8.5426991770       -0.6881760390
 H       -14.2920926758        9.9118635987        0.2701255541
 Na       -8.8065861269        0.6684723749        0.0514500051
