117

 C       -11.7856243865        7.1468577678       -2.9555626123
 C       -12.9103641222        7.5739554679       -2.0005818985
 O       -13.7537419580        6.7409547200       -1.7524205319
 C       -12.7807959452        8.8675169247       -1.1190274051
 C       -11.5936410458        8.7739431405       -0.1050175906
 O       -11.2086859821        7.6824375184        0.2891438668
 C       -10.8100091586       10.0309612802        0.4529396345
 C        -9.2332919556        9.6749453475        0.6332858607
 C        -8.5247290274        9.1786687725       -0.6702362692
 O        -9.0924397365        9.2997288728       -1.6973673056
 C        -7.0801672581        8.6086874248       -0.3884813012
 C        -7.1865700151        7.1083346057       -0.9079428935
 O        -7.4723198978        6.2155834558       -0.1205524773
 C        -7.1911919688        6.8918681556       -2.3867275164
 C        -7.1149766181        5.3987093088       -2.6225730158
 C        -5.7747300534        4.8855866429       -2.1519948627
 O        -4.9877652435        5.6076345187       -1.5746771022
 C        -5.4837624680        3.3604251363       -2.2030172627
 C        -6.0811949346        2.6069616507       -0.9896102068
 O        -6.9852985514        1.8413898042       -1.2031083364
 C        -5.4846774939        2.8362060478        0.3771206983
 C        -6.5309578056        3.3901729418        1.5223795586
 C        -7.2477599630        2.2004454291        2.2567470351
 O        -7.1397769048        1.0664641121        1.8512624072
 C        -8.4544318916        2.6594266975        3.4089071657
 C        -9.7006369899        2.7355423012        2.4513952763
 O        -9.9464618744        1.8361916906        1.6893749105
 C       -10.6856736064        4.0456665724        2.5293024847
 C       -11.2466446013        4.2599445435        1.1231138679
 C       -12.2933553934        3.1547094945        0.9237564210
 O       -12.9940243854        2.7401178454        1.8444139031
 C       -12.5441243859        2.7160475591       -0.5656718127
 C       -11.5036996096        1.5579226794       -0.9009563123
 O       -10.3170836393        1.8329463346       -1.1461973890
 C       -11.8904868259        0.0704007812       -0.9411212025
 C       -12.1171209806       -0.6292586416        0.4184416857
 C       -11.0051535050       -1.5520194890        0.8640871843
 O        -9.8087005836       -1.2454320184        0.8003954965
 C       -11.3369641304       -2.9186086212        1.4279193438
 C       -12.2494995339       -3.5555821293        0.3051209474
 O       -12.1335245332       -3.1683398962       -0.8375011443
 C       -13.0745586440       -4.6983398531        0.6869594269
 C       -10.0450369938       -3.7723339763        1.5427604462
 C       -11.9430187372       -2.6785178321        2.8991958092
 C       -13.9583745933        2.3275081242       -0.7114113463
 C       -12.1628574852        3.8712342378       -1.5762309329
 C        -8.6592709823        1.4873199345        4.4147058779
 C        -8.0501553085        3.8996537881        4.2148113419
 C        -6.1403729044        2.6886959684       -3.4898388529
 C        -3.9266760412        3.1078102078       -2.1821327276
 C        -5.9354247677        9.4062432047       -1.1945370182
 C        -6.7002245376        8.6383558284        1.1362575527
 C       -12.6997021405       10.0879955560       -2.1243381224
 C       -14.0766701170        8.9172725105       -0.3191078311
 H       -11.5943610789        7.8558599474       -3.7538629712
 H       -11.9726933078        6.1155597019       -3.2838063301
 H       -10.8315710620        6.9734278426       -2.3122202938
 H       -11.2017288988       10.3717155560        1.3908382122
 H       -10.8624290941       10.8732792834       -0.2555458798
 H        -9.1727925766        8.7681767760        1.3647828086
 H        -8.7663846303       10.4625726202        1.3452657108
 H        -6.3265104472        7.3774063183       -2.8610032159
 H        -8.1985643713        7.2477310326       -2.7431297992
 H        -7.3350695477        5.0990014904       -3.6416002831
 H        -7.8496925672        4.9354375175       -1.9859959807
 H        -4.7252565608        3.6596033451        0.3903421221
 H        -4.9713827884        1.9942753318        0.9357237816
 H        -7.2613661037        4.1792435194        1.3164459779
 H        -5.9326122546        3.8408706665        2.3417298698
 H       -10.1754287810        4.8222995270        3.0707392128
 H       -11.5497341859        3.7422268594        3.1844098155
 H       -10.3777971910        4.0909496746        0.3695901404
 H       -11.6581053736        5.2721692729        0.9725436444
 H       -11.1743208976       -0.5925885981       -1.4372340291
 H       -12.8956958861       -0.0078784043       -1.4190987898
 H       -13.0372671546       -1.2713431727        0.4176120475
 H       -12.2667751031        0.0787922392        1.2134682786
 H       -13.8420877883       -4.8476656799       -0.1366268571
 H       -13.6541789092       -4.5408367818        1.6249131265
 H       -12.5283707630       -5.5952104613        0.7668821845
 H        -9.5963869172       -4.1655670156        0.6423296037
 H       -10.2767626116       -4.6597728205        2.0678014489
 H        -9.2864731457       -3.0834902434        2.0329596510
 H       -12.8196422495       -2.0047746556        2.9749068122
 H       -11.2022244446       -2.2866253778        3.6076263296
 H       -12.2367684640       -3.6490616981        3.3927069775
 H       -14.5655132981        3.2083234867       -0.5029560019
 H       -14.2177017354        1.6857464458        0.1747794151
 H       -14.2595903125        1.8686159540       -1.6558575776
 H       -12.4195291195        3.5556361966       -2.5587249797
 H       -11.0638284999        4.0107646178       -1.5032133715
 H       -12.6604499208        4.8035947686       -1.3678177516
 H        -8.8107898226        0.4552676886        4.0810226511
 H        -9.5874860645        1.7124006425        4.9569425727
 H        -7.8154059303        1.4162667282        5.1018118966
 H        -7.4472248413        3.4236862408        5.0240340655
 H        -9.0182669803        4.3452991999        4.6849502658
 H        -7.5774080041        4.7518666423        3.6762802761
 H        -5.6140638341        3.0089679706       -4.3599590739
 H        -7.2027544438        2.9735500727       -3.5527193270
 H        -6.2452004838        1.6162133259       -3.5256145191
 H        -3.4639278598        3.6572974787       -3.0326329873
 H        -3.6369691023        2.0704905029       -2.2917795333
 H        -3.4947901336        3.5213719314       -1.2590275368
 H        -5.6965932981       10.3372512823       -0.6110863950
 H        -6.2262840189        9.7453462408       -2.1650143335
 H        -4.9600374842        8.8577282101       -1.1643514370
 H        -6.8069765017        9.6304609945        1.5933304008
 H        -5.6819816811        8.2698005703        1.3079835090
 H        -7.3419097302        7.9175278303        1.6181407668
 H       -12.9596538184       11.0201776299       -1.6249688831
 H       -13.4424056381        9.9303742141       -2.8796045658
 H       -11.7730825774       10.1663697240       -2.7200994007
 H       -14.0074365788        8.4023681378        0.6300658692
 H       -14.9964823632        8.6036690859       -0.8811893669
 H       -14.3132850194        9.9497739232        0.0205072922
 Na       -8.6399852966        0.7192417689        0.1206054706
