117

 C       -11.8071518875        7.0968049739       -2.9767203743
 C       -12.9249569267        7.4574251063       -1.9502635174
 O       -13.8977151718        6.7551476170       -1.8116368046
 C       -12.8596035169        8.8310479952       -1.1670676581
 C       -11.5572016618        8.7297881147       -0.2090073393
 O       -11.4001503901        7.5875845170        0.3016830292
 C       -10.7763209303        9.8802345071        0.3281152608
 C        -9.3104984379        9.5960788286        0.6392043502
 C        -8.5042969920        9.2772916607       -0.5921567223
 O        -8.9664733777        9.2808281410       -1.7310530733
 C        -7.0786915760        8.6188948648       -0.4022972599
 C        -7.2862835650        7.1570322322       -0.9142033861
 O        -7.5224213609        6.3128108755       -0.0766021187
 C        -7.1690733696        6.8223207170       -2.4250391918
 C        -7.0535374301        5.3201457954       -2.7325262867
 C        -5.7380679039        4.8326801314       -2.1001881460
 O        -4.9141795042        5.5967878366       -1.6482209527
 C        -5.3887219058        3.3099749294       -2.1706139722
 C        -6.1176911046        2.6252747259       -0.9370595918
 O        -6.9836540757        1.8397155594       -1.2019206258
 C        -5.4971398268        2.8691820744        0.4454047141
 C        -6.5037048371        3.3086946960        1.5682133092
 C        -7.3531034574        2.2147076372        2.2736355150
 O        -7.2434427264        1.0717469372        1.9543156620
 C        -8.3628389011        2.6428832049        3.3920181574
 C        -9.6631302155        2.8294556045        2.5535560556
 O        -9.9520134167        2.0810062642        1.6467015930
 C       -10.6803263488        3.9631700640        2.6631443312
 C       -11.2510095010        4.2585993895        1.2890517151
 C       -12.1984200102        3.1971126266        0.9188683192
 O       -12.8261087107        2.6489771717        1.8041572401
 C       -12.4759455400        2.7495003682       -0.5426569449
 C       -11.4796973672        1.6021484011       -0.8638092480
 O       -10.3540827085        1.8591348630       -1.1818906996
 C       -11.9249401955        0.1315745952       -0.8858481467
 C       -12.1954136126       -0.5192212667        0.4912706628
 C       -10.9867238693       -1.4428131618        0.8896550100
 O        -9.8160230681       -1.1945811688        0.6799789937
 C       -11.3512462624       -2.9075866357        1.5090962352
 C       -12.3075195702       -3.6300444658        0.3285769062
 O       -12.2905691321       -3.1106672940       -0.7670090751
 C       -13.1888516109       -4.8225202319        0.7572441908
 C       -10.0728842867       -3.7416032641        1.6975961155
 C       -12.0493696145       -2.6833220897        2.8157299553
 C       -14.0095453493        2.3894572373       -0.7276086827
 C       -12.0814490105        3.9712240379       -1.4920106499
 C        -8.6634147796        1.4248422985        4.2812203802
 C        -7.9258722588        3.8894676500        4.1994993270
 C        -5.9713903151        2.7576014274       -3.4661715538
 C        -3.8655580902        2.9553248270       -2.1634006293
 C        -5.9656123330        9.2553822061       -1.3117714752
 C        -6.4906586565        8.7007085977        1.0024563742
 C       -12.7845980277       10.0648524647       -2.1460498840
 C       -14.1965047361        9.0178169710       -0.4293380259
 H       -11.8162734047        8.0289626504       -3.5341520661
 H       -11.9901817424        6.2208483048       -3.5733280313
 H       -10.8280644032        6.8781407664       -2.5538962959
 H       -11.2957023697       10.1758998068        1.3000731491
 H       -10.8380347884       10.7873020199       -0.3499234548
 H        -9.2199143634        8.7562042138        1.3158112178
 H        -8.9209730382       10.4176208379        1.3404445939
 H        -6.1947154177        7.2090222103       -2.7732735097
 H        -8.0142973411        7.2341655970       -2.9643903202
 H        -6.9263935966        5.1847301973       -3.7975841923
 H        -7.9533896303        4.7418700786       -2.4054633547
 H        -4.7146072353        3.6913235691        0.4987286391
 H        -4.9772551844        1.9826185902        0.8034297191
 H        -7.3269161469        3.9235675519        1.1259626639
 H        -6.1043224488        4.0075379970        2.2717362446
 H       -10.1968396455        4.8295370168        3.1556680433
 H       -11.4815851186        3.6416520310        3.3601858034
 H       -10.4391015214        4.2591610042        0.5363940112
 H       -11.6878338830        5.2997888682        1.3332761326
 H       -11.1306784893       -0.5097857912       -1.2723479379
 H       -12.8670886088        0.0179105892       -1.4407989706
 H       -13.1176427703       -1.1634288167        0.5824352500
 H       -12.2405492720        0.2264304548        1.2802960841
 H       -13.8183556330       -4.9849791012       -0.0808049889
 H       -13.8713288450       -4.7268030227        1.6455750564
 H       -12.6142007364       -5.7649017946        0.8179804324
 H        -9.6340684361       -3.9775004254        0.7428988229
 H       -10.2886129914       -4.6967638061        2.0800620051
 H        -9.3372865873       -3.2018675418        2.2182583520
 H       -12.7910942054       -1.9050336489        2.7710298919
 H       -11.3301789501       -2.3381202593        3.5621767547
 H       -12.4879138033       -3.5584458972        3.3458315518
 H       -14.6045534551        3.3199094302       -0.5157468683
 H       -14.3398700114        1.7410795698        0.0918251112
 H       -14.2412732189        1.9665162581       -1.6595135400
 H       -12.4505222588        3.7560595109       -2.4974982533
 H       -10.9991095502        4.1088702585       -1.5261338501
 H       -12.5625245220        4.8871404345       -1.1371614037
 H        -8.6891664536        0.3943923488        3.8556620185
 H        -9.7064617385        1.5957817446        4.7055394883
 H        -7.9412837932        1.3070514586        5.0921344742
 H        -7.4786944437        3.4906879318        5.1891139101
 H        -8.8528984406        4.3558579866        4.4597223041
 H        -7.3243681083        4.6777291662        3.6485213479
 H        -5.3827746448        3.0276183341       -4.3099776969
 H        -6.9531399313        3.0346315481       -3.5794179347
 H        -6.0445008859        1.6914199316       -3.4794817740
 H        -3.4105325103        3.1126617123       -3.2087602266
 H        -3.5671134855        1.9744179782       -1.7990314089
 H        -3.4665027268        3.6635927759       -1.5458030165
 H        -5.6004119260       10.2722571060       -0.9043058270
 H        -6.2021372030        9.4212041832       -2.3626203724
 H        -5.0854533719        8.5968564908       -1.1314049880
 H        -6.6404904572        9.6940587179        1.3804970774
 H        -5.4955092828        8.4132039350        1.0522999105
 H        -7.0911566916        8.0195015074        1.6308328817
 H       -12.7976197816       11.0128531970       -1.5956634284
 H       -13.6810797043       10.0883095231       -2.8111855074
 H       -11.9677863699        9.9877799333       -2.8579781467
 H       -14.3087143232        8.2993372442        0.3766485327
 H       -15.0807645532        9.0123950236       -1.0526129230
 H       -14.2520125357        9.9977192236        0.0798504911
 Na       -8.4976940549        0.7289884136        0.1389431596
