117

 C       -11.9131215244        7.1480151323       -2.9912580544
 C       -13.1185951591        7.4788129821       -2.0804874266
 O       -14.0512835986        6.7181261589       -1.9209528803
 C       -12.9822384935        8.8047751599       -1.2635121641
 C       -11.7940104064        8.5148848723       -0.3151807619
 O       -11.6083801125        7.4934873059        0.2734717302
 C       -10.8260304903        9.7434382457       -0.0216605315
 C        -9.3765072142        9.3525563065        0.5296514618
 C        -8.4573665350        9.1686706011       -0.7046440540
 O        -8.8276965620        9.4691258949       -1.8018134549
 C        -6.9987594223        8.5712238280       -0.5141983670
 C        -7.1805685316        7.0603090679       -0.9016630228
 O        -7.6221646302        6.3127091944       -0.0443907193
 C        -7.2048804181        6.7084295327       -2.3529213523
 C        -6.8655354703        5.2708562482       -2.6916342697
 C        -5.5214214764        4.7645707673       -2.1523558036
 O        -4.6748896960        5.4341213113       -1.6208747842
 C        -5.3002066229        3.2017135279       -2.1472457897
 C        -6.0971414822        2.6053950443       -0.9478165917
 O        -7.0765662415        1.9020247744       -1.1696532053
 C        -5.4634386300        2.7923768049        0.4682042880
 C        -6.5427561556        3.3119344510        1.4810541361
 C        -7.2173653598        2.2376005784        2.2767228829
 O        -6.9876482799        1.0708220610        2.0112450063
 C        -8.2996751848        2.6290116635        3.3724393941
 C        -9.5992369309        2.9353669531        2.5052295388
 O        -9.8483010464        2.2165386610        1.5698406602
 C       -10.5718794877        4.1368016220        2.7708687259
 C       -11.5188726051        4.3983406485        1.5290686918
 C       -12.2118901343        3.1633954542        1.0245853483
 O       -12.6508769438        2.3768034186        1.8557173146
 C       -12.3765178767        2.9481734072       -0.5312633510
 C       -11.4559193078        1.7070618631       -0.7963882412
 O       -10.2440357700        1.8284162200       -1.0755308466
 C       -12.0268417400        0.3183217970       -0.8192538210
 C       -12.0535284158       -0.2478270192        0.6513528364
 C       -11.0286042649       -1.4173277108        0.9042811900
 O        -9.8429675292       -1.3067640296        0.5898946243
 C       -11.4884131289       -2.7760669321        1.4557109213
 C       -12.4015233995       -3.5627182376        0.3816541769
 O       -12.6075226325       -3.0842631554       -0.7012885045
 C       -13.0533927079       -4.8496465646        0.9268092809
 C       -10.2028362653       -3.6770308976        1.7450969156
 C       -12.3375969261       -2.5955885292        2.8049138273
 C       -13.8497586605        2.5403337817       -0.7491270135
 C       -12.0734893472        4.1223672769       -1.4499806172
 C        -8.6926771263        1.4367389673        4.2825582141
 C        -7.8453073063        3.8063798798        4.2714995520
 C        -5.7994550830        2.5132675332       -3.4700493615
 C        -3.7453305188        2.9779471639       -1.9478973222
 C        -6.1782230023        9.4021426078       -1.5263713505
 C        -6.3779944605        8.6997272928        0.9107883616
 C       -12.6417167212       10.0074812290       -2.2488602859
 C       -14.2145911811        9.0797169909       -0.2979523809
 H       -11.6499287234        7.9060414556       -3.6671862313
 H       -12.1097088093        6.2197889308       -3.4679305147
 H       -11.0923897339        6.8472343247       -2.3395938044
 H       -11.3948857313       10.3149839511        0.6955313296
 H       -10.6951364706       10.3953810788       -0.8615855431
 H        -9.4737886494        8.4792916448        1.1687028279
 H        -8.9417951645        9.9730691953        1.2414403247
 H        -6.5548265524        7.3650665517       -2.9067819404
 H        -8.2499798690        6.8775946616       -2.6501509614
 H        -6.8900205661        5.1872276287       -3.8170504343
 H        -7.6175356374        4.6093834692       -2.2751315309
 H        -4.7243504952        3.5210974516        0.5765858069
 H        -4.9778766362        1.8672320173        0.7642261209
 H        -7.2424518835        3.9210881785        0.9256940829
 H        -6.1733171345        4.0365828993        2.2508952823
 H        -9.9803321284        4.9918242770        3.0495765125
 H       -11.1142013380        3.9251742732        3.6848855668
 H       -11.0782125946        5.0014974063        0.7477589091
 H       -12.3101948182        4.9914626733        1.9001311007
 H       -11.3812417827       -0.3448362452       -1.3751876459
 H       -13.0702966540        0.2479838361       -1.0886280138
 H       -13.0090272395       -0.7018455398        0.8568098589
 H       -11.8632843322        0.5790282552        1.3666048706
 H       -13.6563537832       -5.5237801468        0.2621676378
 H       -13.7087704798       -4.4454675234        1.6578077099
 H       -12.3704946715       -5.4853133733        1.4260133262
 H        -9.4385463301       -3.7304468846        0.9834111315
 H       -10.4533288177       -4.7107192746        2.0230598161
 H        -9.6723992782       -3.2278442243        2.6529621024
 H       -13.2933139605       -2.1086518220        2.6556369564
 H       -11.8713288479       -2.0082151375        3.5659626371
 H       -12.4761270222       -3.5003696077        3.3360520315
 H       -14.5106587012        3.3501697884       -0.5906312666
 H       -14.1443513369        1.7094182804       -0.0909854529
 H       -13.8784403470        2.1551943529       -1.7949495223
 H       -12.3475758685        3.8971973460       -2.4806778153
 H       -10.9816786039        4.2738950659       -1.4266925751
 H       -12.6007644949        5.0079104783       -1.1060356020
 H        -8.9725162823        0.5740732835        3.7130733340
 H        -9.4945482805        1.6662282243        4.9525368934
 H        -7.8560849470        1.0041160957        4.8448541035
 H        -6.8600514557        3.6794141480        4.5863086520
 H        -8.3949509225        3.7850785665        5.2429161872
 H        -7.9191994553        4.6886034385        3.7314618174
 H        -5.6394151584        3.1499494495       -4.3451985586
 H        -6.8751735437        2.1571141721       -3.4724308913
 H        -5.1579862363        1.6556444679       -3.6955348781
 H        -3.3764886601        2.6426221968       -2.8806687861
 H        -3.6302741392        2.1479197225       -1.2625065908
 H        -3.1231818639        3.8364300777       -1.5163183523
 H        -5.8667068243       10.2835296108       -1.0509729531
 H        -6.7766555500        9.7237456192       -2.3703611313
 H        -5.2959126895        8.8529306000       -1.8414205517
 H        -6.2110866285        9.7439340323        1.2258753455
 H        -5.3965040490        8.1762644835        0.7631634110
 H        -6.9457648500        8.2626464792        1.7030743790
 H       -12.6853716846       10.9625186827       -1.7324659915
 H       -13.3094156903       10.0830009321       -3.0815968945
 H       -11.6460836223        9.8150798336       -2.6860928982
 H       -14.5477433603        8.1122673870        0.0330910261
 H       -15.0585717009        9.5137677925       -0.8490025431
 H       -14.1520999408        9.7874541021        0.4956769836
 Na       -8.6911211310        0.6866417547        0.1132320540
