117

 C       -12.2649630641        7.0735359627       -3.2795467381
 C       -13.3168843836        7.5065554281       -2.2055328951
 O       -14.3011893508        6.8139705154       -2.1219651172
 C       -13.0529719916        8.8179930858       -1.3075738197
 C       -11.8838691112        8.4691499545       -0.3885153535
 O       -11.7947269076        7.3940718011        0.1207261110
 C       -10.8827278231        9.5359613043        0.1643058204
 C        -9.4043770469        8.9447299500        0.3168465604
 C        -8.4889131127        9.0689969015       -0.9794635844
 O        -8.8552775836        9.6777133565       -1.9843893234
 C        -7.0086390215        8.5435375159       -0.7748283696
 C        -7.0622205703        6.9942307071       -1.0613187186
 O        -7.3141447019        6.2355447855       -0.1530032921
 C        -6.9283873432        6.4727327626       -2.5106546837
 C        -6.8528039905        4.9683895200       -2.4539457066
 C        -5.4638501316        4.5325383599       -2.0561153325
 O        -4.6257580800        5.2775596139       -1.6465048252
 C        -5.1610896449        2.9618719411       -2.0661255701
 C        -5.9039048328        2.5028713344       -0.8300554350
 O        -7.0426612221        2.0352595429       -0.9683285420
 C        -5.3752788346        2.8897014890        0.4980139050
 C        -6.4315489649        3.3728967617        1.4259197455
 C        -7.1591961011        2.2884508979        2.2478590673
 O        -6.9499549585        1.0973975052        2.1295432626
 C        -8.2764588270        2.7221434104        3.2490913376
 C        -9.5357936067        3.1021480168        2.4407924143
 O        -9.8556514497        2.3901909195        1.4807951894
 C       -10.4455136344        4.2839971347        2.8686931585
 C       -11.5940502248        4.5022063725        1.9232242528
 C       -12.2185996288        3.1546876437        1.3466995051
 O       -12.7347992431        2.3063207829        2.0452862884
 C       -12.3204834344        3.0843332910       -0.3459198988
 C       -11.4653218006        1.8241750086       -0.7952514970
 O       -10.3380486831        2.0837744713       -1.2348296754
 C       -11.9358930209        0.3930573790       -0.7536048631
 C       -11.9617786525       -0.2391345015        0.7209126767
 C       -11.0145661886       -1.4554210853        0.8649183591
 O        -9.8482341978       -1.3889520647        0.5233604257
 C       -11.5666565728       -2.7454208506        1.5196919885
 C       -12.5593216762       -3.5482787181        0.5738401928
 O       -12.9493233581       -2.9230409771       -0.3960749603
 C       -13.1237079321       -4.8916693253        0.8435033748
 C       -10.4017760452       -3.6694270997        2.0689101960
 C       -12.4390156240       -2.2725340233        2.7443287739
 C       -13.8126385643        2.8973044264       -0.6508425945
 C       -11.7706483466        4.3346069637       -1.0505612559
 C        -8.7110888862        1.4262951901        3.9959206491
 C        -7.7706179211        3.8521299760        4.1573930206
 C        -5.3896824987        2.3484539922       -3.4283410592
 C        -3.6126660447        2.7087789491       -1.8408723120
 C        -5.9620405153        9.2085921250       -1.6767104797
 C        -6.5936674969        8.6908847574        0.7982461802
 C       -12.7723659285        9.9548788767       -2.3229992598
 C       -14.3537766620        8.9849556778       -0.4800952983
 H       -12.4091285174        7.7156755108       -4.1794604244
 H       -12.4182145344        6.0037549444       -3.5643390259
 H       -11.2544298323        7.1580162345       -2.8879801201
 H       -11.3511033139        9.7095609642        1.2145807229
 H       -10.8365412076       10.5631779793       -0.2821132121
 H        -9.3757583053        7.9380587337        0.7863538826
 H        -8.9222636515        9.4749873708        1.0859736397
 H        -6.0147075928        6.8572288225       -2.9834008116
 H        -7.7805602552        6.8256587792       -3.0877764003
 H        -7.1949389371        4.4964114584       -3.3855500987
 H        -7.4670175162        4.6337351433       -1.5979594408
 H        -4.5025052114        3.4575321334        0.6417015411
 H        -5.1158207387        1.9251730264        1.0208791198
 H        -7.2760215040        3.8372752392        0.8914529822
 H        -6.0496789567        4.1331668572        2.1357674779
 H        -9.8266933047        5.2335092135        2.8692149911
 H       -10.6086151100        4.1748045392        3.9484687965
 H       -11.2853916761        5.2220401812        1.1637687615
 H       -12.4498425539        5.0693008878        2.3913415569
 H       -11.2152340997       -0.2307053730       -1.3164029730
 H       -12.9476508527        0.2391548282       -1.0835833673
 H       -12.9208137268       -0.5810087396        1.0477033819
 H       -11.5316489525        0.5892508439        1.3527655528
 H       -12.6946605824       -5.6080173192        0.0756735156
 H       -14.1823654713       -4.9063094388        0.7084726192
 H       -12.8623634905       -5.3939799459        1.7884047790
 H       -10.0247017517       -4.2901901750        1.3228735195
 H       -10.8033748932       -4.2878269712        2.8639876217
 H        -9.5578591361       -3.2296634854        2.5306093425
 H       -13.4753465950       -1.9544316241        2.4824629623
 H       -12.0713128337       -1.3995169300        3.3456189418
 H       -12.5817377434       -3.0363192654        3.4808268591
 H       -14.3058957889        3.8222425290       -0.4393476987
 H       -14.1914013344        2.1068023334       -0.0289134596
 H       -13.9919464639        2.6303694953       -1.7440570648
 H       -11.8766740116        4.1622549513       -2.1356834281
 H       -10.7299620333        4.4855467998       -0.8721193038
 H       -12.3722080524        5.2067429579       -0.7922197200
 H        -9.0065645301        0.7221800069        3.1982635509
 H        -9.4237348279        1.4738009358        4.8129878736
 H        -7.8540083041        0.8911033250        4.5114609710
 H        -6.7091638139        3.8371754717        4.3356555614
 H        -8.1784551152        3.7783380872        5.2419781524
 H        -7.9111754660        4.8197167785        3.6220845350
 H        -4.7362555135        2.7282119296       -4.1703545209
 H        -6.3880340270        2.4976090325       -3.8190634257
 H        -5.1758886605        1.3205058097       -3.3357401742
 H        -3.1714189424        3.2522247789       -2.5722456818
 H        -3.3525092695        1.6705499328       -1.9278094553
 H        -3.2518577235        3.0681655472       -0.8302173920
 H        -5.9344373679       10.2859917557       -1.6045957700
 H        -6.1369407357        8.8793328906       -2.7717220498
 H        -5.0149434409        8.6879319239       -1.4378393339
 H        -6.8389882408        9.6973555763        1.0675622828
 H        -5.5029849876        8.6328134407        0.8556546080
 H        -7.0511443636        8.0874209612        1.5407458020
 H       -12.5415462051       10.8938106113       -1.7994479866
 H       -13.6899266384       10.1281894202       -2.9095377002
 H       -11.9038982525        9.7369517421       -2.9458565569
 H       -14.5400168761        8.1353968994        0.1917800102
 H       -15.2520506441        9.0023966854       -1.0968820231
 H       -14.4259571928        9.9397045195        0.0162670607
 Na       -8.7138961394        0.7821151816        0.1340188633
