117

 C       -12.4277720157        7.1916868590       -3.4442728378
 C       -13.4556163538        7.5315925461       -2.3745032365
 O       -14.4046249638        6.8315385700       -2.1613214177
 C       -13.1531035467        8.7500985125       -1.3833396576
 C       -11.8662306132        8.2983041871       -0.5187496638
 O       -11.8402208460        7.1571690509        0.0165494842
 C       -10.9168906197        9.3365876999       -0.1047907267
 C        -9.5480977727        8.8502615150        0.1691482714
 C        -8.5506538224        9.0452821508       -0.9751445283
 O        -8.8011695570        9.5903933840       -2.0713854486
 C        -6.9807947163        8.4875571239       -0.7698690135
 C        -7.0214383519        6.8925880403       -0.9763005786
 O        -7.3056077028        6.1272125506       -0.0428851788
 C        -6.8385941792        6.3796260453       -2.4797498593
 C        -6.6357361485        4.8597600735       -2.6589598585
 C        -5.2448131844        4.3907819697       -2.1208546513
 O        -4.4710881448        5.2330932831       -1.6901191002
 C        -4.9713614988        2.8351463783       -1.9889037513
 C        -5.8147052687        2.4393979561       -0.8132476563
 O        -6.8125281929        1.7654653485       -1.0561932401
 C        -5.3194480924        2.7924816074        0.5194852514
 C        -6.3325271967        3.4516671831        1.5446107710
 C        -7.1828244960        2.2875017829        2.2155954575
 O        -7.0603480061        1.1282467201        1.8392266190
 C        -8.3196112258        2.7131484062        3.2944001940
 C        -9.6082143436        3.1388259489        2.4710551534
 O        -9.8195398971        2.5487792221        1.4145692533
 C       -10.4980520931        4.2567530728        3.0650148733
 C       -11.6396128800        4.5668126797        2.1023885678
 C       -12.2351850350        3.3083490254        1.3704121496
 O       -12.7543424433        2.4662339032        2.0524448344
 C       -12.2769368657        3.1378957641       -0.2243792076
 C       -11.4118822696        1.8957064426       -0.6814984931
 O       -10.3009270847        2.0661217625       -1.1417188302
 C       -11.9501544372        0.4957682372       -0.7020690090
 C       -12.0510380676       -0.1640222703        0.6674631317
 C       -11.0023155909       -1.3598869837        0.9184115365
 O        -9.8257253139       -1.3801634193        0.5758704541
 C       -11.6147735986       -2.6137030671        1.6645861081
 C       -12.6333758620       -3.3400037747        0.5804993375
 O       -13.1782844222       -2.7192273770       -0.2990920846
 C       -12.9249856856       -4.7940746039        0.8950904709
 C       -10.5411584203       -3.6582855575        2.0533343457
 C       -12.4721160393       -2.2628213034        2.8772325367
 C       -13.7398613390        2.8982182141       -0.5430731569
 C       -11.7053686327        4.4099020005       -0.9547374511
 C        -8.7534919766        1.5072893121        4.1448638052
 C        -7.8096589016        3.7746833456        4.2864323433
 C        -5.5525328489        2.0637694675       -3.2296879398
 C        -3.4165462809        2.6948713361       -1.9276408939
 C        -6.1174977775        9.2100881049       -1.8680226115
 C        -6.4425017284        8.7465806638        0.6267833877
 C       -12.8138804824        9.9879350771       -2.2704856307
 C       -14.3993851730        9.0961585257       -0.5260577041
 H       -12.6787377247        7.6557641702       -4.3691870471
 H       -12.4674001578        6.1478456556       -3.6171994795
 H       -11.4732765922        7.5313269726       -3.1059634408
 H       -11.3447330609        9.8048237541        0.7450852576
 H       -10.8647635646       10.1299221664       -0.8287445488
 H        -9.4564523888        7.8504569951        0.5018497631
 H        -9.2403410597        9.4807057412        1.0585156988
 H        -6.1045996456        6.9920285252       -3.0056493428
 H        -7.7739745956        6.6575117854       -2.9910209684
 H        -6.7371999784        4.6065720470       -3.7252449258
 H        -7.4573816553        4.3807323480       -2.0902792674
 H        -4.5943422311        3.6481145903        0.4268659108
 H        -4.7657614023        2.1390218259        1.1276835546
 H        -6.9561604848        4.2499423378        1.0946853390
 H        -5.7399982002        3.8283901075        2.3738858216
 H        -9.9135295967        5.0869609348        3.3721225827
 H       -10.8790446549        3.8774532822        4.0248618305
 H       -11.4000240786        5.3424688069        1.4014271584
 H       -12.4442519776        5.0109008446        2.6207464779
 H       -11.3507026419       -0.1615615572       -1.3229829255
 H       -12.9923856317        0.4056543284       -1.0650768204
 H       -12.9936215015       -0.7511139890        0.7399692791
 H       -11.9451676205        0.5577100613        1.4497084568
 H       -12.1410064715       -5.4531153060        0.7095584737
 H       -13.7869613860       -5.1325680593        0.2832574991
 H       -13.1980294765       -4.9740161710        1.9381375055
 H       -10.0925337452       -4.1576201396        1.1734038797
 H       -10.8470395277       -4.2909123010        2.8744140057
 H        -9.7091967197       -3.1918323325        2.5429508932
 H       -13.1527025870       -1.4612167990        2.7555241809
 H       -11.8965639916       -1.9401131381        3.7047151712
 H       -13.1449130237       -3.0764501428        3.2249687110
 H       -14.2819026159        3.8106321030       -0.2057115576
 H       -14.0500618388        2.0070395896        0.0077607532
 H       -13.8835249541        2.8223860557       -1.5745333539
 H       -11.7618584195        4.3786609324       -2.0378968679
 H       -10.6652447121        4.6355004156       -0.6253658986
 H       -12.3682847067        5.2238744137       -0.6384806258
 H        -8.9823235669        0.5770453007        3.6154174261
 H        -9.6774159358        1.8157269031        4.6875916525
 H        -8.1659225371        1.3221103193        5.0124339239
 H        -7.4048304839        3.3660368838        5.2224764190
 H        -8.5860470888        4.3423572743        4.6071929143
 H        -7.0319443571        4.4149418379        3.9287351901
 H        -4.9501252261        2.3687791978       -4.0985283819
 H        -6.4838196420        2.4888626778       -3.4752167867
 H        -5.6546490658        0.9782002699       -3.1542961804
 H        -2.9677863837        3.4101211318       -2.6832807924
 H        -3.1772450366        1.6293969200       -2.1727223282
 H        -3.0497916418        2.9437063595       -0.9780673672
 H        -6.1225656713       10.2444394218       -1.4876094430
 H        -6.6624503603        9.2053485774       -2.7683938722
 H        -5.1401990199        8.8412864248       -2.0960730523
 H        -6.4633540311        9.7823400089        0.9819693048
 H        -5.4592518756        8.3812041553        0.8022109355
 H        -7.1036827617        8.1319924763        1.2839595715
 H       -12.7038316800       10.8792015255       -1.6447098346
 H       -13.6400568801       10.1865697569       -2.9601758210
 H       -11.8439517499        9.8854273586       -2.7696501462
 H       -14.5030005435        8.5243622977        0.3788705157
 H       -15.3367272920        8.8917314230       -1.0192273100
 H       -14.4251812076       10.1594992309       -0.2609983886
 Na       -8.6982531764        0.8784418446        0.1221914935
