117

 C        -1.2872584961        7.3349905636        2.1574895797
 C        -1.6495334294        8.7275846182        2.6574323077
 O        -1.0491087217        9.2502301886        3.6083410226
 C        -2.6079896196        9.5218504319        1.7300568164
 C        -3.8701680986        8.6044632792        1.6714994420
 O        -4.1440014582        7.9434321244        0.6757956836
 C        -4.6413138560        8.5931317417        2.9569384700
 C        -5.4777015611        7.3066807239        3.2525363311
 C        -7.0016559220        7.4800837662        3.1837975413
 O        -7.5234494213        8.5192432001        2.8033519000
 C        -7.8616560494        6.3709297402        3.6309201636
 C        -9.2816682642        6.5546038377        2.9426891730
 O       -10.3341921771        6.4054396440        3.5418771587
 C        -9.2875694778        6.7879076492        1.3735894954
 C       -10.6481874984        6.4613243008        0.7751912290
 C       -11.3753026100        5.0361239864        0.8051785920
 O       -10.8777358207        3.9545052419        0.9052090520
 C       -13.0233694982        5.1023787990        0.9196698563
 C       -13.7296907247        4.2253506397       -0.1707767520
 O       -13.0430600037        3.8810654169       -1.1099220459
 C       -15.2635714313        3.8425323177       -0.1051937647
 C       -15.5242053601        2.4687366782       -0.6203359514
 C       -14.6793121218        1.3519629954        0.1884250919
 O       -13.8633062166        1.6774049917        1.0214040807
 C       -14.7712557418       -0.1695205388       -0.3268823917
 C       -13.6299357644       -0.4775062518       -1.3671530716
 O       -12.5628460155        0.0661265719       -1.2188932248
 C       -13.8492806873       -1.5978096606       -2.3889113638
 C       -12.7909328234       -1.6815673760       -3.4324174269
 C       -12.7751777908       -0.3514319035       -4.1969450887
 O       -13.5281257236        0.5302636123       -3.7948128958
 C       -11.6873535432       -0.0258838820       -5.3062272215
 C       -10.4516016050        0.2795881399       -4.4572797117
 O        -9.9093699235       -0.6965001933       -3.9394038232
 C       -10.0569631947        1.7683725770       -4.2626932884
 C        -8.8114446987        1.9743248294       -3.3392348664
 C        -9.1920425453        2.1246681271       -1.8952927774
 O       -10.1766559868        2.7389538571       -1.5979843694
 C        -8.2619151627        1.5581071940       -0.7554899704
 C        -8.9896477223        0.3739877392       -0.0570207099
 O        -9.7927132608        0.6193441535        0.8675641112
 C        -8.5918906257       -1.0674500456       -0.3421890328
 C        -6.7812837301        1.2342921785       -1.2518881458
 C        -8.1815719503        2.6331271700        0.2414354480
 C       -11.4948378571       -1.4117554551       -6.0744420349
 C       -12.1436049012        1.1713394951       -6.1729510718
 C       -14.4622596547       -1.0589201734        0.9475689676
 C       -16.2120565996       -0.4645833300       -0.8004183995
 C       -13.2306312220        4.4083310180        2.2785279377
 C       -13.7672389232        6.5225500880        0.9827908328
 C        -7.3936341462        4.9658705634        3.2785474503
 C        -8.0324572829        6.4529424702        5.1217665631
 C        -3.1188452101       10.9416732002        2.3056745739
 C        -1.9876515620        9.5956292595        0.3411988852
 H        -0.2152910920        7.3875579500        2.1745975603
 H        -1.7610427741        7.0206343750        1.2025850691
 H        -1.5352802205        6.5378041770        2.9017894553
 H        -5.2827930794        9.3803465487        3.1543193985
 H        -3.8666491545        8.6835469405        3.7926076006
 H        -5.0685690928        6.8304491785        4.2094722122
 H        -5.1755908454        6.5590153091        2.4160648701
 H        -8.4672167613        6.2067232815        0.8956744924
 H        -8.9600199155        7.8191425539        1.2604208481
 H       -10.6983694011        6.7413511402       -0.3007830724
 H       -11.2915747386        7.2605058387        1.2210831204
 H       -15.8187375577        4.4925608358       -0.7847428982
 H       -15.7301109385        4.0036678434        0.8659127238
 H       -15.2166168517        2.4680438337       -1.6269407934
 H       -16.6178305873        2.1058227689       -0.5736916768
 H       -14.7908991514       -1.6756349777       -2.8796696224
 H       -13.9848623814       -2.4912970213       -1.8307552151
 H       -12.9011328875       -2.5517932612       -4.0512241698
 H       -11.8403778873       -1.7300434820       -2.9952869052
 H       -10.8086718629        2.4499793231       -3.8343674369
 H        -9.8630196800        2.1443448725       -5.2746729961
 H        -8.3220870140        2.9021270704       -3.7075060126
 H        -8.0263127201        1.1998612953       -3.4923464740
 H        -8.9195750145       -1.3059079559       -1.3424408922
 H        -9.1306421535       -1.6389334663        0.3163559806
 H        -7.5512081265       -1.1155568932       -0.0117261214
 H        -6.3648469873        2.1509131527       -1.6719587046
 H        -6.6421889872        0.3856013337       -1.9239190654
 H        -6.0973645716        0.9854521426       -0.4314371392
 H        -9.1911427308        2.9851610955        0.3902605259
 H        -7.5881218341        3.4724409894       -0.2137682782
 H        -7.6101873555        2.3438929509        1.1004836747
 H       -12.4848238804       -1.8452612705       -6.2484894163
 H       -10.8216423872       -2.1155858105       -5.6838488618
 H       -11.2245968890       -1.1611224647       -7.1191509715
 H       -12.1333394862        2.0015795855       -5.4972450133
 H       -13.2266410124        1.0645164644       -6.4798461240
 H       -11.5317528846        1.4188869878       -7.0505960216
 H       -15.3754894093       -1.2872165209        1.4804788921
 H       -13.7081407852       -0.6410529513        1.5970514175
 H       -14.1468728402       -2.0754929228        0.6971485494
 H       -16.9649286012       -0.4392623125        0.0241673000
 H       -16.3726350282       -1.4492055260       -1.2242604570
 H       -16.4372786478        0.2450718958       -1.5935340576
 H       -14.2916631406        4.3705566681        2.4110762746
 H       -12.8600745727        4.9543655467        3.1018714686
 H       -12.8857808492        3.3002251624        2.4209227677
 H       -13.4870666189        7.0060768214        0.0645440540
 H       -13.4649716798        7.0753606386        1.8588491561
 H       -14.8927844927        6.6018306117        0.9630500738
 H        -6.5166256335        4.8670688280        3.9259582382
 H        -6.9512193314        4.8950584759        2.2711324046
 H        -8.1694658452        4.2289843423        3.4536533807
 H        -8.8733823129        7.0695857732        5.4702291688
 H        -7.1915402163        6.9447992887        5.6452369129
 H        -8.0821438205        5.4485240113        5.5459695061
 H        -2.9000235911       10.8318690780        3.3400920283
 H        -4.1399793766       11.1106991359        2.0724617955
 H        -2.5240721573       11.7469413641        1.8163959982
 H        -2.5855552968        9.2216695924       -0.4550435818
 H        -1.0603577060        9.0972641785        0.3434473610
 H        -1.8259547943       10.6349490715        0.0423259895
 Na      -11.6729924023        1.9477544740        0.0082511623
