117

 C       -12.5945794053        7.3283343335       -3.6105617994
 C       -13.5284784467        7.4637845362       -2.3870730342
 O       -14.5519933194        6.8092283867       -2.2032312199
 C       -13.1483247912        8.7585437912       -1.4789220235
 C       -11.9748146548        8.4034528648       -0.6371262396
 O       -11.9247684473        7.3101581433       -0.1477014344
 C       -10.8270751161        9.3880317304       -0.2494646647
 C        -9.5239004745        8.6378398357        0.2380222392
 C        -8.4680204594        8.9190300861       -1.0044514881
 O        -8.8260070723        9.2675203530       -2.0543528036
 C        -7.0433521783        8.4202966610       -0.8321241870
 C        -7.0606494131        6.8424158050       -1.0510982924
 O        -7.2833762727        6.1084323457       -0.1287024801
 C        -6.8388310521        6.4038896512       -2.5484248186
 C        -6.4834854417        4.8807069815       -2.7436208195
 C        -5.1598128971        4.3869618288       -2.1927056279
 O        -4.3072794150        5.1121980530       -1.7771642465
 C        -4.9271208785        2.7008607794       -2.0114642906
 C        -5.6599005925        2.2961550594       -0.6886790984
 O        -6.6297630944        1.5641391517       -0.7729454173
 C        -5.1598283809        2.8529170560        0.6647136983
 C        -6.2702837114        3.2893300389        1.6690834064
 C        -7.2306279701        2.2766540849        2.2397558717
 O        -7.3715210825        1.1609567368        1.8683274608
 C        -8.2423592041        2.7789854976        3.4571854954
 C        -9.4810789519        3.2415605256        2.5970100508
 O        -9.7441889907        2.7141550530        1.5567482010
 C       -10.6796026331        4.1491990756        3.1675574038
 C       -11.5847547342        4.5777273684        1.9804513912
 C       -12.1650822748        3.3051080963        1.3339986447
 O       -12.6791870094        2.4619693332        2.0748038508
 C       -12.2763249655        3.0640098754       -0.2161614574
 C       -11.3693286084        1.9552370540       -0.5501102452
 O       -10.2093801896        2.1750335606       -0.9431832882
 C       -11.8890939136        0.5809412151       -0.6666149509
 C       -12.2399004153       -0.0077286414        0.7387676177
 C       -11.1982952274       -1.1591871755        1.0260449295
 O       -10.0068615430       -0.9927741499        0.8312422817
 C       -11.6337956422       -2.5523997225        1.6666376815
 C       -12.6916889226       -3.2299137897        0.6561581132
 O       -13.3252041081       -2.5356379907       -0.1072956324
 C       -12.9087501424       -4.7783723956        0.7500251646
 C       -10.3756952137       -3.3649183943        1.9094752831
 C       -12.3753818344       -2.1980978294        3.0080376155
 C       -13.8236621105        2.9287461237       -0.5943777838
 C       -11.7877881768        4.2965945417       -1.0279040779
 C        -8.7073827563        1.4565319238        4.0936057796
 C        -7.7178519173        3.7952974322        4.3964547877
 C        -5.5163483089        2.0390665741       -3.3597618884
 C        -3.4189741722        2.4588562448       -1.9676997339
 C        -6.1487787351        9.1983056360       -1.9690176149
 C        -6.4172757100        8.7352780574        0.4941963676
 C       -12.9573356951        9.9787042930       -2.4242549548
 C       -14.3113381964        8.9738274501       -0.4907485965
 H       -12.9999308970        7.9263477789       -4.4485260986
 H       -12.7031274994        6.2811277405       -3.9635682950
 H       -11.5429453647        7.6858246231       -3.3714080448
 H       -11.1500446175       10.1863229180        0.4504378029
 H       -10.5172507411        9.9513964775       -1.1282082090
 H        -9.7873181792        7.4942920480        0.1488783584
 H        -9.2416992879        8.7937190098        1.2891976086
 H        -6.1068302646        7.0775125671       -3.0319531610
 H        -7.7269054688        6.6807727602       -3.1515418480
 H        -6.5579083353        4.5921318964       -3.7856156075
 H        -7.2150896771        4.3110200190       -2.1916394437
 H        -4.3987517972        3.5954497099        0.7610348798
 H        -4.6442890727        1.9310200431        1.1121435563
 H        -6.8879482902        3.9134441992        1.0057187714
 H        -5.9127407588        3.8150628793        2.5753914254
 H       -10.1965931368        5.0100523323        3.7102540515
 H       -11.2770778753        3.6311039473        3.9232573049
 H       -11.0388874200        5.1274857140        1.1661539635
 H       -12.3637060606        5.3399228476        2.2946262952
 H       -11.2108010505       -0.1383074790       -1.1689469736
 H       -12.8054104268        0.5282931894       -1.2571407702
 H       -13.2006972988       -0.4435836427        0.8157996031
 H       -12.0019493047        0.7260785253        1.5411809261
 H       -11.9262234494       -5.3262946651        0.9449423114
 H       -13.4295029069       -5.2986298258       -0.0320887587
 H       -13.4170006411       -4.9595873384        1.6717616083
 H        -9.7513088163       -3.4068255352        1.0101515712
 H       -10.5325515843       -4.3225035175        2.4014998573
 H        -9.7402831753       -2.8606894377        2.7214141943
 H       -12.9860084890       -1.2766203108        3.0616485151
 H       -11.5910692722       -1.9816175991        3.7546836592
 H       -13.0844869571       -2.8990211348        3.3759284645
 H       -14.2484533143        3.9041079994       -0.4948919854
 H       -14.2506252482        2.2138117794        0.1201085822
 H       -13.9517623205        2.6154741788       -1.6835137064
 H       -11.7066424250        3.9749079484       -2.0723312118
 H       -10.8203809801        4.6277541166       -0.6852212382
 H       -12.4597116494        5.1378451297       -1.0176618249
 H        -9.1680065173        0.8085905455        3.3807247944
 H        -9.4557554785        1.6135283645        4.8256575492
 H        -7.8792867959        1.0353980707        4.6676806930
 H        -6.8546815794        3.4520587219        4.9593534947
 H        -8.5488063199        4.2020315500        5.1346780294
 H        -7.3723566351        4.7665768578        3.9511585163
 H        -5.1760678811        2.5198058261       -4.2953752611
 H        -6.6660875812        1.9482784772       -3.3919108208
 H        -5.1641454772        0.9799224856       -3.3238874231
 H        -3.0259969974        2.6866481486       -2.9545513626
 H        -3.1607966428        1.4754707264       -1.6653083384
 H        -3.0374376608        3.2606008382       -1.2624610497
 H        -5.8680048674       10.1683847939       -1.6378380486
 H        -6.6133636995        9.1855795550       -2.9480526140
 H        -5.2002557260        8.6417843868       -2.0664090926
 H        -6.3432514852        9.8296293212        0.6118974822
 H        -5.3590087885        8.3423931714        0.6216353366
 H        -6.9600163767        8.2822400409        1.3061126598
 H       -12.9354590161       10.9491194359       -1.9627419910
 H       -13.8029760674        9.9233661522       -3.0683652693
 H       -12.0451436870        9.8826206033       -2.9934191761
 H       -14.5603439330        8.0422755814        0.0324473571
 H       -15.2589762267        9.1898442079       -1.0313525094
 H       -14.1481086012        9.6986100712        0.3174019997
 Na       -8.7871087499        0.7328091870        0.0670515056
