117

 C       -12.7897173988        7.2526098945       -3.8244766889
 C       -13.6183961076        7.5252958640       -2.4777992474
 O       -14.4889280766        6.7635112350       -2.1856265322
 C       -13.2357264041        8.8104668890       -1.5437229282
 C       -11.9617513747        8.3906788242       -0.6576920297
 O       -11.9520260701        7.2413271457       -0.2106979758
 C       -10.9005120906        9.3740631475       -0.2608055654
 C        -9.4895770891        8.7914439024        0.0681805365
 C        -8.4908714650        8.7518827680       -1.2044348928
 O        -8.7907251935        8.9798076459       -2.4119062346
 C        -6.9785104594        8.2851637854       -0.9934450443
 C        -6.8783144384        6.7351143257       -1.2240544504
 O        -7.2225390015        5.9813933918       -0.3052389479
 C        -6.5241662795        6.2184361418       -2.6196164348
 C        -6.5111594244        4.7539475317       -2.5463155157
 C        -5.1437557262        4.2936806980       -2.0317924982
 O        -4.2759843032        5.1029313464       -1.8728245306
 C        -4.9886148985        2.6531367223       -1.8932143099
 C        -5.7584501478        2.2224204620       -0.6503789697
 O        -6.6527917370        1.3959490245       -0.8434519515
 C        -5.1942399289        2.6392394292        0.7442917531
 C        -6.2511342021        3.3728446166        1.6955791031
 C        -7.1735813732        2.3300431102        2.3745911795
 O        -7.1606606437        1.1633249136        1.9888856323
 C        -8.1844546855        2.7253816899        3.4334215469
 C        -9.5586278539        3.1891295399        2.6397079696
 O        -9.7120340956        2.6980365693        1.5127676941
 C       -10.5590613830        4.1874014971        3.1107723378
 C       -11.3922322113        4.6666735473        1.9464525188
 C       -12.1376665413        3.4713591600        1.2893964202
 O       -12.6424397198        2.6674037352        2.0032221159
 C       -12.3043529655        3.2027067428       -0.3185323941
 C       -11.4556715358        2.0207849843       -0.6316769890
 O       -10.3048562967        2.1660870423       -0.9672076450
 C       -12.0005690495        0.6329154171       -0.7098464429
 C       -12.3340363587       -0.0362218681        0.6279431697
 C       -11.2236628856       -0.9954836730        1.1629265586
 O       -10.0568862110       -0.6855067375        1.0630066800
 C       -11.6667673009       -2.4604107674        1.7346042387
 C       -12.7273916485       -3.1472794434        0.7183589125
 O       -13.4672544066       -2.4178039307        0.0936374257
 C       -12.7789222797       -4.6567823480        0.7201663175
 C       -10.3491635355       -3.2932477489        1.8842586768
 C       -12.3671094249       -2.3534150263        3.1785672385
 C       -13.8256511363        2.8409773774       -0.5464933429
 C       -11.9794262957        4.4581873072       -1.0972077339
 C        -8.6425769437        1.4709910664        4.3582651272
 C        -7.6238851213        3.8649705362        4.3638332103
 C        -5.6228248331        2.0042594343       -3.1420573365
 C        -3.4638767706        2.3886807461       -1.7657373688
 C        -6.0710347909        9.1323358572       -1.9091070311
 C        -6.4930811327        8.5907578834        0.4833523921
 C       -13.1006886477       10.1212103578       -2.3182125795
 C       -14.4002050953        9.0012453866       -0.5295944156
 H       -13.0059035958        8.1261216620       -4.4622216058
 H       -13.0581134537        6.3445817367       -4.3631018315
 H       -11.7911262994        7.4131072064       -3.5700795170
 H       -11.3085554115        9.9454222771        0.6129443039
 H       -10.8176835542       10.1668637463       -1.0589740980
 H        -9.6112438835        7.8678095245        0.4769814137
 H        -8.9243140894        9.4695695972        0.7201457606
 H        -5.6813258303        6.6844000663       -3.0869120828
 H        -7.2989388122        6.5876399503       -3.2642784345
 H        -6.7567575115        4.2783135301       -3.5168759861
 H        -7.3053329591        4.4641277046       -1.8093343342
 H        -4.3401818073        3.3571840063        0.6900807739
 H        -4.7648421704        1.8308863716        1.2585436694
 H        -6.8545809456        4.0348447706        1.0466687827
 H        -5.7436162191        3.8388704836        2.5364330451
 H       -10.0552320533        5.0176527276        3.5936156144
 H       -11.1391432071        3.6370144033        3.9012875839
 H       -10.8106979166        5.2523730151        1.2766618790
 H       -12.1573776751        5.3244710220        2.3144491085
 H       -11.2235831686        0.0383415968       -1.1845907194
 H       -12.8229581241        0.4963954223       -1.4169319754
 H       -13.2776396405       -0.6335599098        0.6671537422
 H       -12.3288557648        0.7346225974        1.3919151583
 H       -11.8342782255       -5.1034690656        0.6029373576
 H       -13.3993317390       -5.0230921339       -0.1046156603
 H       -13.1936149637       -5.0928762368        1.6800655393
 H        -9.9504626966       -3.5316600178        0.9209842439
 H       -10.5865128485       -4.2685867159        2.3327929159
 H        -9.6063854671       -2.8293207010        2.4269228236
 H       -13.4281619357       -2.1618586471        3.1643527017
 H       -11.9322500475       -1.6258739156        3.8631991214
 H       -12.3985897502       -3.3725672863        3.6336112490
 H       -14.5006360365        3.7131792266       -0.3814435724
 H       -14.0505294472        2.0020355127        0.0863169703
 H       -13.8589896942        2.5708940129       -1.5678880530
 H       -12.4709537013        4.5192764443       -2.0644673945
 H       -10.8990243226        4.5012311580       -1.2222125135
 H       -12.2475685236        5.3621580191       -0.5422247681
 H        -9.3259887396        0.7698839164        3.8202789429
 H        -9.2765328421        1.7507596162        5.2583915321
 H        -7.7371727533        0.9745422407        4.7358409497
 H        -6.5419580312        3.9452023433        4.2498962822
 H        -7.8413897930        3.7244574244        5.3628240636
 H        -8.0064797861        4.8673215879        4.2792654911
 H        -5.1975667464        2.6129705945       -3.9163774751
 H        -6.6516869062        2.0429295403       -3.1963646856
 H        -5.3659578556        0.9846924306       -3.2722149588
 H        -3.1341455512        2.0408665546       -2.6959919939
 H        -3.2808777044        1.5741730340       -1.0355852741
 H        -3.0015793062        3.3261963024       -1.5464457038
 H        -6.2211063119       10.2195877206       -1.6766721396
 H        -6.2339813244        8.9131573809       -3.0042742369
 H        -5.0218615136        8.9613096323       -1.6433670041
 H        -6.6955613436        9.5555705432        0.8906491065
 H        -5.4539392256        8.5298468202        0.4923713960
 H        -6.7685363135        7.7749170321        1.1601391965
 H       -12.6638424990       10.8708627823       -1.6390241944
 H       -14.0673997397       10.4884599018       -2.7350182416
 H       -12.3771090129        9.9642801531       -3.1218906732
 H       -14.9193153420        8.0743027902       -0.2575808069
 H       -15.1716515656        9.5937114329       -0.9681773608
 H       -14.0902197958        9.3551588003        0.4582878283
 Na       -8.6829777569        0.8335899864        0.0779652697
