117

 C       -12.8747806110        7.5764655610       -3.8196203466
 C       -13.6461331404        7.6279418029       -2.4691015771
 O       -14.4191525815        6.7782000427       -2.0595883246
 C       -13.2493389915        8.8080286807       -1.5286647542
 C       -11.9275766238        8.3873241368       -0.7339020752
 O       -11.7689761099        7.3590218272       -0.0996951754
 C       -10.8160414545        9.4393361298       -0.7056579333
 C        -9.5369445342        8.9034259032       -0.2095171122
 C        -8.6124234595        8.6838985847       -1.3852511677
 O        -8.9389329971        8.6738173489       -2.5184123037
 C        -7.0477119868        8.3417499309       -0.9590674935
 C        -6.8793600016        6.7637518294       -1.1673739260
 O        -7.1880579718        5.9708226714       -0.2713728083
 C        -6.5191205457        6.2477082206       -2.6516980147
 C        -6.4483423472        4.6854919186       -2.7053054866
 C        -5.1718088032        4.0910237939       -2.0624892398
 O        -4.2514153602        4.8415383366       -1.7575273889
 C        -4.9632731112        2.5236802115       -1.8963984126
 C        -5.7810755136        2.1850746264       -0.6001653762
 O        -6.7741190518        1.5055262189       -0.8143797496
 C        -5.2136081176        2.5810923545        0.6816146361
 C        -6.2464826208        3.2657209966        1.5745248997
 C        -7.1219650470        2.2318504097        2.3926294899
 O        -6.9959756290        1.0400758851        2.3355777368
 C        -8.1579151897        2.7928863226        3.4412027699
 C        -9.3862300154        3.1217727449        2.5725913881
 O        -9.6457085771        2.4963847203        1.5927747311
 C       -10.3972056677        4.3055939527        2.9222059369
 C       -11.2655280399        4.6272040568        1.6460887705
 C       -12.1696290178        3.4731786499        1.2708678869
 O       -12.7166587053        2.8147199881        2.1698992388
 C       -12.3996697330        3.2227088908       -0.3033893709
 C       -11.5250628444        2.0424447198       -0.7091114715
 O       -10.3756823242        2.2504353370       -1.1433628361
 C       -11.9568178946        0.6266103436       -0.6251007022
 C       -12.3039207576        0.0696155429        0.7642769552
 C       -11.2598461400       -1.0041172549        1.1699954590
 O       -10.0617480233       -0.6832431787        1.2323185473
 C       -11.7188649022       -2.3970437624        1.7218851855
 C       -12.7588410472       -3.1566362265        0.7428083475
 O       -13.6308785272       -2.5250427026        0.1943115457
 C       -12.6075387707       -4.7123271445        0.7399049403
 C       -10.3601082031       -3.1800349550        1.8388606159
 C       -12.4004394372       -2.1763808521        3.0795313784
 C       -13.9010945737        2.9546564187       -0.3647860527
 C       -12.0536374581        4.3783467250       -1.2458164667
 C        -8.5686043344        1.6425782903        4.3688258830
 C        -7.7154171353        4.0270917832        4.3407832393
 C        -5.4324918078        1.7205970348       -3.1483171318
 C        -3.4482587901        2.2643093497       -1.5797014514
 C        -6.0968830422        9.0683052971       -1.9115901101
 C        -6.7068203022        8.5411819705        0.5626743793
 C       -13.0102382755       10.1152253968       -2.3564464767
 C       -14.4342555622        8.9407807046       -0.4908427580
 H       -12.9672041576        8.4507189863       -4.3997539775
 H       -13.2802316465        6.7340279698       -4.3191176416
 H       -11.7768577017        7.5238141197       -3.6057022847
 H       -11.1664180868       10.2723288115       -0.1775059559
 H       -10.6181100461        9.7816684688       -1.6795951503
 H        -9.7388246220        7.8078181740        0.2033264338
 H        -9.0270555051        9.5759331282        0.4913391296
 H        -5.6764251504        6.7484890666       -3.1791883295
 H        -7.3517909830        6.6697080285       -3.2830069756
 H        -6.4710200474        4.3224922445       -3.7332440236
 H        -7.3117365846        4.2592671488       -2.2279426306
 H        -4.3860176391        3.2816936072        0.6021806099
 H        -4.7757479149        1.7574974367        1.3306577890
 H        -6.9956244946        3.7390079797        0.9649074330
 H        -5.7127185466        3.8940856186        2.2975407263
 H        -9.9061718381        5.2394725462        3.2316118496
 H       -10.9846526235        3.8708771577        3.7137062871
 H       -10.5908222950        5.0142304001        0.8323133899
 H       -12.0259424752        5.4022969380        1.9014278360
 H       -11.2512433960       -0.0042845070       -1.2009338256
 H       -12.8777783099        0.4689471371       -1.2023126736
 H       -13.2213389172       -0.4629071140        0.7398590844
 H       -12.3389930156        0.8668301402        1.5266103305
 H       -11.7633466209       -5.1299467139        0.1484561342
 H       -13.4951091195       -5.2036221775        0.3435109299
 H       -12.4661332310       -5.0558877878        1.7039761506
 H        -9.9383086648       -3.3739123964        0.8178195765
 H       -10.4614933238       -4.1850975142        2.2267955243
 H        -9.5849969614       -2.5237085898        2.3871971864
 H       -13.4371543901       -1.8690168009        2.8568769106
 H       -11.9739309092       -1.3758599346        3.6797377024
 H       -12.4673654034       -3.0475567230        3.7329736445
 H       -14.2589156235        3.8722449979        0.0070799424
 H       -14.1708010588        2.1868404017        0.3710120625
 H       -14.2616408481        2.8119067496       -1.3899765496
 H       -12.1185933962        4.0200806000       -2.2849000401
 H       -11.0352286584        4.7796554536       -1.0960196044
 H       -12.7369488753        5.2183832696       -1.1586544140
 H        -8.7556652062        0.7924843610        3.7233195312
 H        -9.5148919316        1.7837106157        4.8299038128
 H        -7.7577350479        1.3821491858        5.0487430968
 H        -6.7193105943        3.8129825700        4.7934192159
 H        -8.3619243633        4.3919391058        5.1272604522
 H        -7.6377598519        4.9164820513        3.7352839074
 H        -4.7898647853        1.9459632944       -3.9993897009
 H        -6.4809713229        2.0095715274       -3.3837180694
 H        -5.5077331094        0.6449082414       -2.9482606953
 H        -3.0483194329        2.0558417620       -2.6552174578
 H        -3.2747873546        1.3763774255       -1.0176778821
 H        -3.0013507713        3.1984037138       -1.2093472724
 H        -5.9772855330       10.1051996602       -1.6748167328
 H        -6.5461914955        9.0428988091       -2.8420181618
 H        -5.1048668418        8.6264770715       -1.8900964507
 H        -6.5545007875        9.6150034152        0.7780664149
 H        -5.7059282015        8.1020211369        0.8368441267
 H        -7.3934474357        8.1090708818        1.2585724131
 H       -13.0197789261       11.0058386487       -1.7216876903
 H       -13.8132843912       10.1661627434       -3.0696473367
 H       -12.0895373024       10.0621341919       -2.9628690396
 H       -14.5703895182        8.0767799434        0.1118616112
 H       -15.3923573446        9.1853288180       -0.9747285340
 H       -14.1568053147        9.6149796221        0.2907685041
 Na       -8.7163801939        1.0221306339        0.3199733141
