117

 C        -1.2425106139        7.3887755471        2.1396863921
 C        -1.6057138832        8.9011915887        2.5205838967
 O        -1.2122472391        9.4354073583        3.5655247728
 C        -2.6753018033        9.6382693434        1.5687197453
 C        -3.8704269668        8.6328182931        1.6372803284
 O        -4.1290875306        7.8798272249        0.7150611080
 C        -4.6603382033        8.6031937190        2.9436021902
 C        -5.4888913284        7.3192348712        3.1597694041
 C        -7.0288125631        7.5846141761        3.1161305606
 O        -7.4070358060        8.6875791672        2.7151718637
 C        -7.8572565858        6.3419880154        3.6435168983
 C        -9.3218906103        6.4190131422        2.9336691606
 O       -10.3218331659        6.2735620186        3.5884719611
 C        -9.3982362194        6.6592318546        1.4368731768
 C       -10.7153154678        6.4665864159        0.6722884572
 C       -11.5372421691        5.1602166336        0.8765080877
 O       -10.9567170129        4.1079551084        1.0229776265
 C       -13.0298843563        5.1776070368        0.9554626120
 C       -13.5795020699        4.2455799638       -0.1782671672
 O       -12.9597448847        3.8548283198       -1.0922911615
 C       -15.0747634669        3.9319543773       -0.1034047393
 C       -15.4187432090        2.4140825243       -0.5165174220
 C       -14.6503420544        1.3513439652        0.1452909892
 O       -13.7916677298        1.5844334799        0.9735248377
 C       -14.8753761949       -0.2230827690       -0.2037538541
 C       -13.6939630329       -0.5287385066       -1.1602369479
 O       -12.6331068657        0.0983983614       -1.2873718976
 C       -13.9059461724       -1.7432939757       -2.1870709486
 C       -12.8382127644       -1.7343793513       -3.3235706178
 C       -12.8055360647       -0.3304317143       -4.0345141087
 O       -13.5263106922        0.6005005810       -3.7816591126
 C       -11.8166686940       -0.1083861059       -5.2565922384
 C       -10.3212192550        0.1708912789       -4.6119583306
 O        -9.6428997404       -0.6883528672       -4.0976387160
 C        -9.9429374746        1.6779294010       -4.3748094348
 C        -8.8159901757        1.8808663473       -3.3287432684
 C        -9.2820394891        2.0712177638       -1.8925674567
 O       -10.2530506084        2.7707450216       -1.6366698999
 C        -8.3136547614        1.6025448051       -0.6940920241
 C        -8.9490208016        0.3970241547        0.0936680031
 O        -9.8298904493        0.6532387026        0.9192520590
 C        -8.5292402132       -1.1072177985       -0.1909682494
 C        -6.9555102402        1.1219146938       -1.2190588617
 C        -8.0511524794        2.7397242669        0.3626773576
 C       -11.6481775016       -1.4387992342       -6.0511536589
 C       -12.1517774545        1.0498960122       -6.1735639330
 C       -14.7054529086       -1.1897151827        0.9111834819
 C       -16.2675388555       -0.5341080058       -0.9372807119
 C       -13.1679995566        4.5132313707        2.3873710074
 C       -13.7711733939        6.4798926979        0.8026836483
 C        -7.1595296162        4.9654089377        3.2710011787
 C        -8.0057917359        6.4631516913        5.1763222260
 C        -3.0560589491       11.0320955793        2.0500768342
 C        -1.9923965075        9.7585357692        0.1487779392
 H        -0.3966733144        7.1739563061        1.5562071360
 H        -2.1590655401        6.8435922644        1.8669627042
 H        -1.0217338225        7.0103544059        3.1117560750
 H        -5.3763475562        9.4031794503        2.9614255807
 H        -4.1108815589        8.8379612008        3.8069750045
 H        -5.2045108554        6.8850759612        4.0968194646
 H        -5.1173865363        6.6266599701        2.3877238844
 H        -8.5433190805        6.1530052583        0.9226049512
 H        -9.0219951145        7.7676119190        1.3918362535
 H       -10.5049019126        6.5883325852       -0.4164182481
 H       -11.2647555390        7.3629471634        0.8681252774
 H       -15.7400121404        4.5323369580       -0.6496703234
 H       -15.3412893273        4.1258948109        0.9511683962
 H       -15.1543189455        2.3578565032       -1.5578411398
 H       -16.4319061340        2.0273763176       -0.4697378158
 H       -14.8702976775       -1.8471198141       -2.6502719579
 H       -14.0130696844       -2.6917866114       -1.6575252649
 H       -13.0943070407       -2.4602837669       -4.1280149388
 H       -11.8255175313       -1.9813922896       -2.9729206785
 H       -10.7052973175        2.3245358153       -4.0496259523
 H        -9.6437930183        2.0282042513       -5.3433631229
 H        -8.2221231629        2.7292407721       -3.6593948812
 H        -8.1089788349        1.0050327747       -3.3665995610
 H        -8.5666079028       -1.1995791549       -1.2756264468
 H        -9.2298190552       -1.7796915012        0.2324737211
 H        -7.6172396486       -1.2293691766        0.3789025691
 H        -6.4874717688        1.8959910614       -1.7077015108
 H        -6.8403379482        0.2435865933       -1.7767446706
 H        -6.2831085776        0.9137294346       -0.2929374297
 H        -9.0256517318        3.1093485734        0.6665851906
 H        -7.5136907258        3.5158480187       -0.0168252655
 H        -7.4753473999        2.2856006932        1.1527289040
 H       -12.6252013884       -1.8260051830       -6.4118624177
 H       -11.1008780231       -2.2293751301       -5.4511391138
 H       -11.1225219995       -1.2613582626       -6.9760361731
 H       -12.2248936405        1.9596932138       -5.5727497219
 H       -13.0555888112        0.9393104381       -6.7412618450
 H       -11.3458029001        1.1144485619       -6.8496856564
 H       -15.6692068967       -1.5364622079        1.2890942882
 H       -14.0372053867       -0.9446336550        1.7071284946
 H       -14.3366611306       -2.0908016948        0.4810147643
 H       -17.1590751736       -0.2377510084       -0.3978930773
 H       -16.4756913823       -1.5949989344       -1.1382880265
 H       -16.1370687134       -0.0395689291       -1.9951943859
 H       -14.1670111448        4.2115592827        2.7681154276
 H       -12.7185618960        5.1119599076        3.1474567774
 H       -12.6370031198        3.6220620841        2.3729026432
 H       -13.4772391744        6.8645348515       -0.1986607495
 H       -13.6015184798        7.1950991041        1.5908296375
 H       -14.8424661888        6.3842626071        0.7518123760
 H        -6.2115418593        4.9162991138        3.8111399810
 H        -6.8468419649        4.9106477032        2.2032541874
 H        -7.8624763963        4.1505182217        3.5287885348
 H        -8.3916322284        7.4138604947        5.5667805353
 H        -7.0360133788        6.3628837725        5.6530252402
 H        -8.5820517263        5.6427004377        5.5480195797
 H        -3.1321773815       10.9893200535        3.1241391340
 H        -3.9038109103       11.3676918995        1.5588432857
 H        -2.2479565767       11.6558883672        1.7644046969
 H        -2.6072497675        9.4426377480       -0.7066357208
 H        -1.0923756582        9.1810322535        0.0725844312
 H        -1.8285807871       10.7972990397       -0.0698014543
 Na      -11.6608689619        1.9121774156        0.1278437918
