117

 C       -13.1555246365        7.7862161452       -3.8790441742
 C       -13.6461309562        7.7337614542       -2.4451801587
 O       -14.1618416562        6.7342365301       -2.0357032079
 C       -13.3983151178        9.0132189118       -1.4583068027
 C       -11.8916717853        8.8331068901       -0.9645303286
 O       -11.6602001928        7.9686031929       -0.0931378742
 C       -10.6713146635        9.6198724367       -1.5527807099
 C        -9.3207824744        9.3361705743       -0.8352311931
 C        -8.4386097001        8.3153429091       -1.6004359099
 O        -8.8819203530        7.7042746971       -2.5995342232
 C        -7.0204407471        7.9578275695       -0.9994646413
 C        -6.8205535679        6.4068993987       -1.2749010288
 O        -7.0572157271        5.5859859719       -0.4169277272
 C        -6.3920688175        5.9032814574       -2.6023554448
 C        -6.2926128210        4.3973034657       -2.6551188734
 C        -5.0506748881        3.9322784988       -1.9775821974
 O        -4.1668016835        4.5820100656       -1.4824370828
 C        -4.9464670562        2.3775097569       -1.8522218868
 C        -5.8644350775        2.0725820108       -0.6023194940
 O        -7.0427957683        1.8086251749       -0.8280554769
 C        -5.4128008342        2.3234954672        0.7840028296
 C        -6.4155952902        3.1530463964        1.5620013128
 C        -7.1659076536        2.3988867253        2.6305727648
 O        -7.0524470864        1.1873399148        2.5530659949
 C        -8.1869278621        3.0987217048        3.6231771692
 C        -9.4084174109        3.3881731965        2.5769917247
 O        -9.8841948978        2.4112462697        1.9876738317
 C       -10.0013441247        4.7839630440        2.3479344328
 C       -10.8446001908        4.7792787608        1.0545291604
 C       -11.9832584147        3.7267339212        1.1284151084
 O       -12.5819142359        3.4151545305        2.1105807839
 C       -12.5783876812        3.2641670653       -0.3062116583
 C       -11.6074891800        2.0531987022       -0.4909173677
 O       -10.4459821156        2.3418407505       -0.6658516076
 C       -11.9637014871        0.5702254973       -0.4637697894
 C       -12.1842546727        0.0183530574        0.9203039022
 C       -11.1690546423       -1.1184359556        1.1388275211
 O       -10.0830451785       -1.1660252130        0.5939141916
 C       -11.6574784626       -2.3748235028        1.9073206019
 C       -12.6625646157       -3.1168527603        0.8811523948
 O       -13.6367538153       -2.5055997661        0.4924830762
 C       -12.3098558898       -4.5158779393        0.5574111314
 C       -10.4222783873       -3.1568576710        2.3785345807
 C       -12.5627686864       -1.9340818442        3.1789486031
 C       -14.1048500534        2.8629533507       -0.1017641699
 C       -12.3140868643        4.2521938851       -1.5178376493
 C        -8.6430462436        2.0521565117        4.6491210680
 C        -7.7482275651        4.3841258595        4.3076678852
 C        -5.4614718368        1.7412456628       -3.1814941561
 C        -3.4891433440        1.8935383539       -1.6107703380
 C        -6.0531126279        8.7279696063       -1.8649771040
 C        -6.6824915081        8.2582333746        0.4764848218
 C       -13.6707815900       10.3099264003       -2.2629797745
 C       -14.4413692495        8.7942568140       -0.3424000802
 H       -13.9484034430        7.8387381503       -4.6229478928
 H       -12.4898991112        6.9291714181       -3.9729507828
 H       -12.5119532442        8.6156252720       -3.9672390670
 H       -10.8494993748       10.6417535734       -1.6191819938
 H       -10.7133010649        9.2360989124       -2.5404740910
 H        -9.5993807200        8.7422697350        0.0929413285
 H        -8.7250063397       10.2989849176       -0.6376484668
 H        -5.4185405080        6.3861729247       -2.8476858842
 H        -7.0983314138        6.2900818906       -3.4193454966
 H        -6.2561391647        4.0714353383       -3.6996371575
 H        -7.1858997251        3.9474791371       -2.2959912155
 H        -4.4119220504        2.8451559190        0.9583993556
 H        -5.3528932089        1.3552662800        1.2750218994
 H        -7.0907392979        3.5945485222        0.8331881235
 H        -5.8992595263        3.9584492396        2.1626227828
 H        -9.2016806616        5.4305017345        2.0883446901
 H       -10.6102837512        5.0961143188        3.2161958189
 H       -10.1303610631        4.6008392881        0.1951352628
 H       -11.4172983327        5.7304642014        0.9763117622
 H       -11.1652758406        0.0744513295       -1.0095560750
 H       -12.9417387149        0.4721970329       -1.0192670630
 H       -13.1813662224       -0.3706400364        1.1784167655
 H       -11.9933198172        0.7284220635        1.6912247878
 H       -11.5244870876       -4.5824708854       -0.1199573046
 H       -13.1401180875       -5.0385101148        0.1156139360
 H       -12.0284686487       -5.1427649379        1.4628844968
 H       -10.0304611016       -3.7573968016        1.5076990196
 H       -10.7931363779       -3.8639582070        3.2040418780
 H        -9.6702653540       -2.4924694844        2.7644609314
 H       -13.4620424642       -1.4543965272        2.8858197954
 H       -12.0207022990       -1.2909737830        3.8458931562
 H       -12.6915373727       -2.8262341457        3.8077324811
 H       -14.6389363838        3.7815068113        0.2117968062
 H       -14.0978096304        2.1600917060        0.7148576029
 H       -14.4557571110        2.4567323117       -0.9927929957
 H       -13.0648650013        4.2071682309       -2.2899975877
 H       -11.4005908194        3.9726950644       -2.0648218141
 H       -12.1770215810        5.3252953000       -1.2935312053
 H        -9.1931584438        1.2213017971        4.2059665760
 H        -9.1810756068        2.5926315630        5.4563858113
 H        -7.7764770092        1.5671405103        5.0452693834
 H        -6.6851120656        4.3905155192        4.5389688011
 H        -8.1594282911        4.2938072675        5.3074426409
 H        -7.9651764864        5.3251344359        3.7774308686
 H        -4.9659061620        2.1366865256       -4.0699822253
 H        -6.5023874737        1.8104782119       -3.3229462415
 H        -5.1068882767        0.7261837314       -3.1265450238
 H        -2.9980724291        2.2477936770       -2.4579041078
 H        -3.3868246984        0.7380074868       -1.5344257484
 H        -3.0772959008        2.3991692433       -0.7179744482
 H        -5.8766122833        9.7487981380       -1.5686948046
 H        -6.3725461279        8.7723465139       -2.9086910216
 H        -5.1620402396        8.1908351359       -1.8436891198
 H        -7.1584263715        9.1048343350        0.9369252263
 H        -5.6455152476        8.3047719971        0.6102362311
 H        -7.1558600897        7.4787443539        1.0957295670
 H       -13.6545801737       11.2291978376       -1.6567480027
 H       -14.6810196850       10.2127085576       -2.7034225068
 H       -12.9340803791       10.3741778207       -3.0860260469
 H       -14.3121885250        7.7958837310        0.0868190570
 H       -15.4516832265        8.8993294736       -0.6901905315
 H       -14.3721063949        9.5338723552        0.4759571554
 Na       -8.7536626213        0.9677752661        0.4052842651
