117

 C       -13.1406509499        7.8763764232       -3.9134326696
 C       -13.5939906322        7.7322124355       -2.4731018681
 O       -14.1287512771        6.7032782520       -2.0689833791
 C       -13.3485237556        8.9548754034       -1.5179937649
 C       -11.8483818856        8.7595750707       -0.9741673975
 O       -11.5840791933        8.1010055243       -0.0238194872
 C       -10.6771197287        9.4871871544       -1.7234897660
 C        -9.3671842728        9.3222638164       -0.9286958898
 C        -8.4913117222        8.1682338358       -1.5697129482
 O        -8.8914794144        7.6524102611       -2.5318593071
 C        -7.0060227243        7.8795494173       -1.0575936734
 C        -6.7972136318        6.4032653453       -1.2335634179
 O        -7.0892335123        5.6079464062       -0.3933563509
 C        -6.3925183150        5.9919548181       -2.7355712500
 C        -6.2299755741        4.4161265991       -2.8180403231
 C        -5.0411387321        3.8662768951       -2.0011531687
 O        -4.1971584299        4.6032239281       -1.5184490409
 C        -4.9483261989        2.2589588406       -1.8253654960
 C        -5.9286816790        1.9867812694       -0.5644414477
 O        -7.0942018291        1.6735279388       -0.8150552715
 C        -5.4063724213        2.3056722161        0.8690104037
 C        -6.3557154637        3.2378438397        1.6319653267
 C        -7.1873659208        2.3464251141        2.6163698580
 O        -7.2366673864        1.1621529711        2.5298350664
 C        -8.2301572666        3.1088859610        3.5916204233
 C        -9.4387368713        3.3763176111        2.6115070262
 O        -9.8777822231        2.4248621337        1.9948466445
 C        -9.9120002527        4.7797102265        2.2558455195
 C       -10.8009009002        4.7733413530        0.9562361268
 C       -12.0926557017        3.9275887179        1.0701027247
 O       -12.5205516063        3.5869014041        2.2037635480
 C       -12.5367845043        3.2477920524       -0.2581102976
 C       -11.5337168513        2.0744356251       -0.4964219325
 O       -10.3849279600        2.3807430883       -0.6877695112
 C       -12.0233329083        0.6407857509       -0.4184621476
 C       -12.0813824818        0.1143959066        0.9921649123
 C       -11.1416872382       -1.1281699925        1.1015524917
 O       -10.0388184301       -1.0794591108        0.6213379094
 C       -11.6451451058       -2.3868739271        1.9422461406
 C       -12.6536990788       -3.1582757084        0.9752358754
 O       -13.6361213042       -2.5802369259        0.5695324347
 C       -12.2678103654       -4.5026489603        0.5165913749
 C       -10.4807510991       -3.2150196967        2.4526865756
 C       -12.5064863776       -1.8259237772        3.0762339207
 C       -14.0121675705        2.8364392451       -0.1414188270
 C       -12.4116268753        4.1375031144       -1.4602246333
 C        -8.6319629022        2.0948195975        4.6863050094
 C        -7.7560711489        4.4838871897        4.1494111673
 C        -5.4197612061        1.6173347696       -3.1172756911
 C        -3.4965700792        1.7731171976       -1.5417544418
 C        -6.0528967859        8.8441365780       -1.9251144057
 C        -7.0319687705        8.2330500716        0.4373327944
 C       -13.6450203608       10.3294872105       -2.2050835380
 C       -14.2594290374        8.8986770820       -0.2373944734
 H       -14.0571756292        7.8952406268       -4.5714603947
 H       -12.4434087955        7.0446029333       -4.1263692860
 H       -12.5159755015        8.7551157437       -4.0538276368
 H       -10.8401171190       10.5792754291       -1.8695173005
 H       -10.7082721464        9.0164526232       -2.7224304468
 H        -9.6310056958        9.2312637999        0.1174867393
 H        -8.6874836608       10.2039300260       -1.2111204850
 H        -5.4583329593        6.5075240848       -3.0294841012
 H        -7.1745081399        6.4402991956       -3.3814984432
 H        -6.2488496871        3.9754029057       -3.7982198885
 H        -7.1432531174        4.0000421163       -2.3550786093
 H        -4.3775009671        2.6430006099        0.9184816950
 H        -5.4659110998        1.4090335442        1.4731839626
 H        -7.1097229582        3.7316900268        0.9476316233
 H        -5.7858368903        4.0212657866        2.1631766840
 H        -9.1294331767        5.5218692079        2.0280641076
 H       -10.5591928593        4.9994267120        3.1520091753
 H       -10.1558975256        4.2297640963        0.2517898248
 H       -11.0549646084        5.8173305171        0.6011840890
 H       -11.2952820128        0.0663158172       -1.0177538582
 H       -13.0207960678        0.6045215067       -0.8752678518
 H       -13.0879144831       -0.1639926287        1.3522767659
 H       -11.7360048484        0.7865642862        1.7731999220
 H       -11.2357244927       -4.4964528801        0.1463161946
 H       -12.8747490673       -4.9788954857       -0.2138635588
 H       -12.2518586961       -5.1872654803        1.3844809767
 H        -9.9263048767       -3.5183022489        1.5399453556
 H       -10.8669448659       -4.1102712246        3.0320286270
 H        -9.8322950582       -2.6082732537        3.1323232860
 H       -13.5255576519       -1.6182363100        2.7308907827
 H       -12.0639482999       -0.9000241414        3.5235258324
 H       -12.4533072515       -2.5594848293        3.8481117631
 H       -14.5801141427        3.7392393048        0.0566215973
 H       -14.0630044101        2.1435948418        0.6581754785
 H       -14.2783982136        2.3785109569       -1.1241336288
 H       -13.0257499664        3.9129398698       -2.3480355717
 H       -11.4113179167        4.1409062636       -1.8357140175
 H       -12.5765244954        5.1904267306       -1.2150265504
 H        -8.9189447911        1.1879818829        4.2280115984
 H        -9.2955151840        2.5299662990        5.3946132314
 H        -7.7119160361        1.8190763414        5.2112799085
 H        -6.6752992879        4.4797449612        4.2478494288
 H        -8.0995345316        4.5270603606        5.2751061571
 H        -7.9661223116        5.3659954074        3.5177788384
 H        -4.8464527435        2.0116772512       -3.9741511082
 H        -6.5069850475        1.7887091166       -3.3460674025
 H        -5.1071582507        0.5569661176       -3.0882569800
 H        -3.0339155682        1.9209214095       -2.4939389313
 H        -3.4123396072        0.7424303855       -1.2089785408
 H        -3.0159759104        2.4867930340       -0.8145011470
 H        -5.9542574963        9.7939486793       -1.4866996184
 H        -6.3599429324        8.9453119852       -2.9974873006
 H        -5.0935481445        8.3892075082       -1.9692397278
 H        -7.2841436348        9.2788487703        0.5658363027
 H        -6.0553719298        8.0963287982        0.9110580257
 H        -7.8635289701        7.8134153429        1.0247630098
 H       -13.7939331029       11.0328308976       -1.3876088411
 H       -14.5103046642       10.3875763341       -2.8880448579
 H       -12.7476960482       10.6404620268       -2.6987768331
 H       -14.2427152486        7.9049551272        0.2566089822
 H       -15.2790939827        9.1124493371       -0.4793891839
 H       -14.0337803831        9.6997381919        0.4669476382
 Na       -8.8882866688        0.8724358742        0.5208675310
