117

 C       -13.1311197795        7.9584859307       -3.9670480158
 C       -13.5549713454        7.7784429707       -2.4708731228
 O       -14.0802993687        6.7433993131       -2.0848666572
 C       -13.2179122363        8.9732686812       -1.4667977822
 C       -11.8013624816        8.7694777468       -0.9788409990
 O       -11.6079430519        8.1748357034        0.0546826091
 C       -10.6806612195        9.3995175599       -1.8443326427
 C        -9.3755489965        9.3615726032       -1.1436722557
 C        -8.5618683823        8.2373862857       -1.7499610134
 O        -8.9301252132        7.4404475442       -2.5895913518
 C        -7.1592667053        7.9597082162       -1.0741613835
 C        -6.8369214047        6.4346895178       -1.3013431878
 O        -7.0514186889        5.6044626621       -0.4005777042
 C        -6.3623162647        5.9039317394       -2.6927661271
 C        -6.1762174175        4.3980111773       -2.8812373765
 C        -5.0309490878        3.8237696810       -2.0268378410
 O        -4.2151106693        4.5766785993       -1.5420734015
 C        -4.9676892513        2.2346929030       -1.8387689489
 C        -5.9628091027        1.9899932618       -0.6239289934
 O        -7.0675363148        1.5016635450       -0.7700323241
 C        -5.3629086879        2.2514257681        0.7255865816
 C        -6.2750426255        3.1591921310        1.7364667972
 C        -7.3126569552        2.4355836547        2.5475893768
 O        -7.4527803356        1.2154298347        2.5319022952
 C        -8.2252800087        3.1769641570        3.5042753977
 C        -9.5227386412        3.3510074884        2.5487994589
 O        -9.9696526584        2.3620048157        2.0263105106
 C        -9.9200748978        4.7692875525        2.1924479805
 C       -10.7222381094        4.8214349964        0.9123481134
 C       -12.0035021571        3.9677487041        1.0720086216
 O       -12.5335263349        3.8297935702        2.1563226700
 C       -12.4906197657        3.3024497694       -0.2408304695
 C       -11.5085217374        2.1109274400       -0.5011341831
 O       -10.2970885898        2.2701740993       -0.7225923522
 C       -12.0847777941        0.6783944428       -0.4603095454
 C       -11.9672280781        0.1470311941        1.0015036007
 C       -11.1028377245       -1.0900013185        1.2047833432
 O        -9.9618092299       -1.1341091211        0.7076697428
 C       -11.6429082056       -2.2815229263        1.9788319752
 C       -12.5792601573       -3.1156035473        0.9598184198
 O       -13.6569181461       -2.6733840044        0.6667478471
 C       -12.2063281935       -4.6024969543        0.4451979770
 C       -10.5193395539       -3.2305376333        2.4539490804
 C       -12.5038580901       -1.7481930267        3.1750490038
 C       -14.0606688425        2.7443218275       -0.1049326946
 C       -12.4917938936        4.2402092118       -1.4625651264
 C        -8.6602877434        2.2423342841        4.6772230339
 C        -7.5704571724        4.4779825169        4.1257639752
 C        -5.4991787710        1.4075346298       -2.9873464977
 C        -3.5401558716        1.8123692507       -1.4010691803
 C        -6.1495789197        8.8798509971       -1.8210475596
 C        -7.2065515173        8.2760159683        0.4765100055
 C       -13.5273799993       10.2843912378       -2.1487615400
 C       -14.0870918138        8.8915764316       -0.1611382942
 H       -14.1204238274        7.9262087778       -4.4325834319
 H       -12.4930268984        7.1186866221       -4.2847578875
 H       -12.5155047880        8.8846235602       -4.2601630703
 H       -10.9646872459       10.5089429178       -1.9883023254
 H       -10.7137809926        8.9145242232       -2.8898207869
 H        -9.5674288861        9.1254299376       -0.1110780012
 H        -8.7721285058       10.2062945367       -1.3003871482
 H        -5.4083227547        6.3314098163       -2.9991036670
 H        -7.0987878196        6.2911119156       -3.3543450743
 H        -5.8849464095        4.2276779827       -3.9275179020
 H        -7.1461250341        3.8415415354       -2.8200555852
 H        -4.4967804955        2.8755127284        0.6354056316
 H        -5.0455242271        1.3935300801        1.3244146622
 H        -6.8928195189        3.9310557415        1.2103252151
 H        -5.5646003496        3.7068241910        2.4041738609
 H        -9.0560654195        5.4795252330        2.0042917166
 H       -10.5771468066        5.0741239104        3.0152936868
 H       -10.0650803810        4.4897738203        0.1334117175
 H       -11.0913930176        5.8319181399        0.7559004707
 H       -11.3632285746        0.1523549467       -1.1147169689
 H       -13.0891077240        0.6379925575       -0.8245935450
 H       -12.9253706969       -0.1344109862        1.4266441072
 H       -11.6190407403        0.8789960503        1.7854794662
 H       -11.1018749839       -4.7621709891        0.2498677413
 H       -12.7203495669       -4.9196085941       -0.4863385271
 H       -12.4848519950       -5.3228165772        1.1421850311
 H        -9.7186537009       -3.2853559054        1.7250641943
 H       -10.9353111968       -4.1552917801        2.7096529100
 H       -10.1521239414       -2.7964345719        3.4322789590
 H       -13.5827111706       -1.6448079628        2.8809550682
 H       -12.1286825043       -0.7549389719        3.5239993147
 H       -12.3771291210       -2.4879590975        3.9791930284
 H       -14.6734973350        3.6141900840       -0.0795927528
 H       -14.1303804226        2.1021410060        0.7885688879
 H       -14.2577933153        2.1754426040       -1.0500037085
 H       -12.6935979100        3.7721689911       -2.4247502469
 H       -11.5526745639        4.7711410286       -1.6128653082
 H       -13.1885945592        5.0407163711       -1.3330273535
 H        -8.7331693370        1.2619034391        4.2686167762
 H        -9.4922964798        2.6394249187        5.1974664543
 H        -7.8433101429        2.1781533260        5.4186709469
 H        -6.5030549341        4.2255791520        4.4427461618
 H        -8.0749160390        4.8007303740        5.0221136463
 H        -7.4204235798        5.2371002887        3.3381502991
 H        -4.9312163458        1.7142226661       -3.8883028720
 H        -6.5616021098        1.7332328199       -3.1971364524
 H        -5.3253332150        0.3108769868       -2.8926297107
 H        -2.9920906297        1.6132836801       -2.3832658948
 H        -3.6318350814        0.9358845095       -0.8676627658
 H        -3.0022450714        2.5274016419       -0.8230294848
 H        -6.2648645716        9.9061445307       -1.4484763011
 H        -6.2515446783        8.8059358890       -2.8885301338
 H        -5.0677678598        8.5637189210       -1.6431667141
 H        -7.1129916055        9.3409695469        0.7620960046
 H        -6.2914089428        7.7920342262        0.9239217361
 H        -8.1103739110        8.0474396218        0.9993878204
 H       -13.7371015627       11.0093124930       -1.3781155405
 H       -14.3841032415       10.2298928908       -2.7879148159
 H       -12.6708401812       10.6425345993       -2.6888903238
 H       -14.0799854610        7.8969759863        0.2648679520
 H       -15.1499005878        9.1261501998       -0.3763201716
 H       -13.8390807826        9.6819351692        0.5330034494
 Na       -8.9596604695        0.8342892757        0.6088222879
