117

 C       -13.5350924875        8.3289619104       -3.9930443601
 C       -13.6256732971        7.9817456398       -2.5129200400
 O       -14.0371255614        6.9337227700       -2.1329752038
 C       -13.1515581026        9.0210884588       -1.4275121277
 C       -11.6334873485        9.0178649136       -1.2516557983
 O       -11.1741780501        8.4809599398       -0.2279694205
 C       -10.7164033924        9.4871450375       -2.3510248440
 C        -9.1796053049        9.4482383229       -1.9461666051
 C        -8.5835556630        7.9447714947       -2.0518483964
 O        -9.1906881826        7.1446020811       -2.7284590573
 C        -7.2648677151        7.6181195379       -1.0908320377
 C        -6.7723439566        6.1831521958       -1.3161954924
 O        -6.9033824424        5.4291845442       -0.4017842336
 C        -6.4069054413        5.6837512615       -2.6966228505
 C        -6.1623408792        4.1402866267       -2.7237310218
 C        -4.9823623969        3.5373172778       -1.8639013688
 O        -4.0818830513        4.2237666956       -1.3808565722
 C        -5.0374108593        1.9604800969       -1.7288566577
 C        -5.8399244739        1.7406414372       -0.3673260417
 O        -7.0207458395        1.4718889623       -0.4611023082
 C        -5.2529434411        1.9379496507        1.0277287585
 C        -6.0117605606        3.1035904258        1.8245852462
 C        -7.2107703181        2.4943597671        2.5199826781
 O        -7.4952194934        1.2964236473        2.3912103416
 C        -8.2367193037        3.4244896360        3.3942701386
 C        -9.4454093198        3.6292333802        2.3335935618
 O       -10.0988498165        2.6407776011        2.0644219723
 C        -9.9772921206        5.0391994767        1.9454507584
 C       -10.7811722299        5.1451005679        0.5889046520
 C       -12.0941227643        4.3235815601        0.7476912074
 O       -12.8336768698        4.6118412491        1.6982927436
 C       -12.5592217625        3.2009456138       -0.2573599593
 C       -11.4478386551        2.1064367331       -0.2515276969
 O       -10.2962346880        2.4259419188       -0.5548354883
 C       -11.7459042359        0.6158374596       -0.1694191069
 C       -12.2142778062        0.0192189995        1.1272123981
 C       -11.1367763015       -1.1400591604        1.5171036187
 O        -9.9604301226       -0.9567603077        1.2929944313
 C       -11.6703720248       -2.4313757391        2.2134116945
 C       -12.5559263761       -3.0984737012        1.1404227991
 O       -13.6773881667       -2.7045317069        0.9140071515
 C       -11.8810095622       -4.1226384800        0.2935632498
 C       -10.4939037065       -3.2203773163        2.7335830835
 C       -12.5425217025       -2.0045525916        3.4148001867
 C       -13.9292660403        2.6380631146        0.0821674726
 C       -12.4673146730        3.8543203712       -1.6655729874
 C        -8.6434930040        2.4631206220        4.5304080229
 C        -7.6483146612        4.7991200446        3.8523553744
 C        -5.8423940902        1.2439618843       -2.8368905454
 C        -3.6041006868        1.4704864844       -1.8315796277
 C        -6.0657256838        8.5354804046       -1.4648910897
 C        -7.5825733799        7.8245632356        0.4243970832
 C       -13.6877436613       10.4156344975       -1.9091502450
 C       -13.7481077542        8.6840639208       -0.0422691593
 H       -14.5445671770        8.7734703728       -4.2145803526
 H       -13.4813840759        7.3205437439       -4.5236620575
 H       -12.6646712494        8.9033738049       -4.2950801093
 H       -10.9209963970       10.5857036743       -2.6125348120
 H       -10.9739520294        8.8584688222       -3.3091573635
 H        -9.1347469623        9.7081158470       -0.9067041330
 H        -8.6166633425       10.1448775139       -2.4608929969
 H        -5.5397489994        6.2497127797       -2.9198050930
 H        -7.2348489544        5.8513547927       -3.3620890037
 H        -5.9913584454        3.8988108730       -3.8173240345
 H        -7.1416975739        3.7302925668       -2.4902181223
 H        -4.1043558550        2.1570399436        1.0290198814
 H        -5.3834822605        0.9761791240        1.5133145064
 H        -6.1904426380        3.9352968423        1.1655824543
 H        -5.5295984554        3.6349989571        2.6980434731
 H        -9.1537979241        5.7708312667        1.8351775556
 H       -10.6756547195        5.3871574981        2.7460758721
 H       -10.0839570213        4.8056802145       -0.1892643920
 H       -11.0988866504        6.1395794617        0.3575337651
 H       -10.8183177366        0.2362142958       -0.5335112375
 H       -12.4750463959        0.5360094388       -0.9976971649
 H       -13.2607939103       -0.3416009376        1.0667212555
 H       -12.2557488046        0.7182556029        1.9858275093
 H       -11.0337706995       -3.6353695901       -0.1141146898
 H       -12.4350382854       -4.5948352826       -0.5138454839
 H       -11.4636699805       -5.0011528917        0.8963748680
 H        -9.9317417712       -3.6566775690        1.8803814481
 H       -10.8437062014       -3.9732347540        3.5001191052
 H        -9.8365667267       -2.5430918984        3.2056365501
 H       -13.2653225270       -1.2827509106        3.0498092785
 H       -11.9107644510       -1.5976872292        4.1784739559
 H       -13.2391401050       -2.8425151911        3.6260325242
 H       -14.6845473841        3.4676983381       -0.0146136444
 H       -13.7962255441        2.2454722200        1.1081847098
 H       -14.1314744993        1.8721107598       -0.6173051322
 H       -12.9798915066        3.2576842404       -2.3890482894
 H       -11.4222683432        4.0157693637       -1.9717462485
 H       -12.9032988059        4.8576265048       -1.7778998747
 H        -9.3449283643        1.7481516888        4.1452601843
 H        -9.0857079569        3.0517807085        5.3323214457
 H        -7.7799598856        2.0810104521        4.9533447941
 H        -6.6402263261        4.5457330929        4.1860501422
 H        -8.3341992050        5.1110088354        4.6616096543
 H        -7.6937471055        5.6390886704        3.1146089773
 H        -5.5768830857        1.8518898920       -3.7574111882
 H        -6.9266419900        1.2976835043       -2.7023333348
 H        -5.7168992283        0.1443843455       -2.9590883388
 H        -3.1406705692        1.8288683102       -2.6670543966
 H        -3.5774905453        0.3284004007       -1.8820289333
 H        -3.0768284639        1.7886618287       -0.9512370155
 H        -6.1037039407        9.4318790075       -0.8191600687
 H        -6.1601221108        8.8232186847       -2.5351689197
 H        -5.0864780269        8.1825648303       -1.2959345385
 H        -8.1121716333        8.7801632218        0.6437703822
 H        -6.6802988342        7.8982425527        1.0230376474
 H        -8.0722750554        6.9229969802        0.8821157709
 H       -13.4202503329       11.2388025151       -1.2526843848
 H       -14.7589312935       10.3301162780       -1.9498484267
 H       -13.2946378520       10.6867676562       -2.8949754180
 H       -13.2372533480        7.8077588580        0.3446603694
 H       -14.7979387553        8.3773304218       -0.0916872613
 H       -13.6068880949        9.5719901998        0.5989879959
 Na       -9.0229617099        1.0223683464        0.6052259888
