117

 C       -13.8678942602        8.4542490866       -3.9218961832
 C       -13.6245372508        7.9757871734       -2.4847402600
 O       -13.8940321837        6.8355330317       -2.1765339428
 C       -13.0216513146        9.0385248662       -1.4392109768
 C       -11.4610484467        8.9102289496       -1.3578208775
 O       -10.8934531484        8.4815996218       -0.3975501100
 C       -10.5553696491        9.4382350574       -2.4999381756
 C        -9.0431151387        9.3508516651       -2.1187887212
 C        -8.5811743082        7.8901962677       -1.9585967573
 O        -9.0974294074        7.0067232597       -2.6603279279
 C        -7.3160904098        7.5465195838       -1.0289617770
 C        -6.9545900281        6.1005160713       -1.2287063195
 O        -7.0650458306        5.3160440456       -0.2468995908
 C        -6.4474798272        5.5940488221       -2.6010185221
 C        -6.1671643000        4.0806381856       -2.7843762719
 C        -5.0789021946        3.4756208454       -1.9552630469
 O        -4.2247737161        4.0480523764       -1.3271820103
 C        -5.1053853756        1.8822202619       -1.7278794282
 C        -5.8950540930        1.7501268668       -0.4245981424
 O        -7.0760785552        1.4379537853       -0.4691329278
 C        -5.2080855377        2.1120346115        0.8741975350
 C        -5.8988261395        3.0925861274        1.7569857853
 C        -7.2070302627        2.5868658376        2.4198525034
 O        -7.3692869593        1.3737473517        2.4122420944
 C        -8.1457987877        3.5128056720        3.1960125693
 C        -9.5063687250        3.6800264990        2.2577444637
 O       -10.1899416394        2.6799714125        2.0091246408
 C        -9.9082958553        5.0708666294        1.9449672253
 C       -10.7475995714        5.0067383019        0.6751693718
 C       -12.1512292507        4.3784509039        0.7602757218
 O       -12.9888374198        4.6963906668        1.5135855527
 C       -12.5705107551        3.2539250686       -0.3517308199
 C       -11.4622332366        2.0929083796       -0.3802887534
 O       -10.2742938419        2.3423988433       -0.5511768938
 C       -11.8771908783        0.5941205123       -0.2757513457
 C       -12.0469639250        0.1514140525        1.2182857234
 C       -11.1369665726       -0.9469947204        1.7296726418
 O        -9.8962502025       -0.8499819463        1.5958456456
 C       -11.6771747988       -2.3062799473        2.3305348518
 C       -12.5331334551       -3.0458891967        1.1742026978
 O       -13.6952487777       -2.7883272041        0.9469889503
 C       -11.8347863911       -4.0707664867        0.2200719175
 C       -10.4947588700       -3.2281756921        2.7564253918
 C       -12.6491220483       -2.0510488961        3.5616613287
 C       -14.0015078881        2.7135141869        0.0677882728
 C       -12.6836716269        3.8816687806       -1.7430882807
 C        -8.7643827294        2.7783555863        4.4422503430
 C        -7.4490759726        4.8000876386        3.6642971280
 C        -5.8332455788        1.1684385847       -2.8932180940
 C        -3.6391713030        1.3176416590       -1.4970531091
 C        -6.2912666383        8.5328407136       -1.5488056686
 C        -7.8104276142        7.8916982078        0.3894289300
 C       -13.4328780388       10.4603148481       -1.8366148766
 C       -13.6733105440        8.6867549163       -0.0713333005
 H       -14.7684722681        9.0103074028       -3.9931435650
 H       -13.8790539390        7.6197769544       -4.5681550127
 H       -12.9663808371        9.0736082256       -4.1039096504
 H       -10.7033884511       10.3790339164       -2.9357606159
 H       -10.7869907027        8.7256785734       -3.2141749522
 H        -8.7774285530        9.9346764806       -1.2065214229
 H        -8.3913093062        9.7565963519       -2.9725302990
 H        -5.4377941939        6.0740758464       -2.6935080015
 H        -7.2131429029        5.8338453493       -3.3692444253
 H        -5.8526424042        4.0223478313       -3.8088497292
 H        -7.1032229740        3.5038977475       -2.7184827375
 H        -4.1855366233        2.4425267485        0.6961720947
 H        -5.1125929700        1.2190165777        1.5586846366
 H        -6.1710290337        4.0449238929        1.2433276694
 H        -5.1870029471        3.4614770450        2.4786720801
 H        -9.0977555443        5.7686943883        1.8067131968
 H       -10.5050018688        5.4295556778        2.7570546194
 H       -10.1030070954        4.5753963371       -0.0701004618
 H       -10.9815124537        6.0072026812        0.2561410499
 H       -10.9960220817        0.1726648939       -0.8091790830
 H       -12.7268151684        0.4411490815       -0.9226434973
 H       -13.0612431525       -0.1606589893        1.4166966872
 H       -11.8751792037        0.9733211965        1.9194187582
 H       -11.1079984688       -3.6190157930       -0.5134919104
 H       -12.5944888176       -4.5747034173       -0.3995351083
 H       -11.3251149242       -4.8294090896        0.7012532717
 H        -9.7380209381       -3.1973870378        2.0185932920
 H       -10.8778832874       -4.1816299595        2.8172818759
 H       -10.0456412135       -2.9346433386        3.7178009336
 H       -13.6592104051       -1.7767395213        3.2245283780
 H       -12.1303661245       -1.2538022811        4.1162629962
 H       -12.7833519822       -2.9621498959        4.1263611921
 H       -14.6409992413        3.5176345068       -0.1698929096
 H       -13.9876694218        2.5413709117        1.1353597404
 H       -14.2758634029        1.8171547591       -0.5518942907
 H       -13.6057534718        3.5812294329       -2.2517375563
 H       -11.8438539405        3.7049015271       -2.3943134050
 H       -12.7578083117        4.9502090148       -1.7029208753
 H        -9.0421384123        1.7423054265        4.1814175847
 H        -9.6897728946        3.2937867778        4.7550593411
 H        -7.9763643344        2.8844049442        5.2446020512
 H        -6.9391277936        4.4966229448        4.5761345897
 H        -8.1428690580        5.5565539049        3.7730575398
 H        -6.8000171470        5.1940880805        2.9331351213
 H        -5.3982756909        1.3782088521       -3.8263884030
 H        -6.8903324380        1.4503438889       -2.9258842588
 H        -5.9151549720        0.1219082103       -2.7055725434
 H        -3.1147293237        1.5921949432       -2.4833215656
 H        -3.5411521216        0.2882530697       -1.4500262073
 H        -3.0605571607        1.8105266744       -0.7285919850
 H        -6.3410301648        9.5360550728       -1.0785851267
 H        -6.3855330533        8.6303898109       -2.6260376791
 H        -5.2197965877        8.2003557636       -1.2854801206
 H        -7.7831417557        8.9598546150        0.4498175641
 H        -7.3216782393        7.4933485119        1.2927461311
 H        -8.7783993990        7.5081085484        0.5082270084
 H       -13.4367125209       11.0796877104       -0.9496652154
 H       -14.4267201978       10.4884433659       -2.2676644984
 H       -12.7418311580       10.9089556470       -2.5285494178
 H       -13.6182481033        7.6068330184        0.1240007877
 H       -14.7512624896        8.9472847852       -0.1351770134
 H       -13.1311407947        9.2085559382        0.7272315119
 Na       -8.8802854101        0.9590967951        0.8992623592
