117

 C       -13.9528031321        8.4333628745       -3.9594661690
 C       -13.5590727969        8.0186523410       -2.5240236183
 O       -13.7076159131        6.8921314556       -2.1763135697
 C       -12.9848287222        9.0732145807       -1.4690069743
 C       -11.4434571539        8.8655755421       -1.3950606910
 O       -10.9361133567        8.3642337808       -0.3705575595
 C       -10.5736361680        9.3558166574       -2.6219729943
 C        -9.0383693942        9.3017739698       -2.3303625410
 C        -8.6302165680        7.8349024426       -2.0614551771
 O        -9.1369640385        6.8928526388       -2.6603434959
 C        -7.4346251409        7.6201942072       -1.0630432900
 C        -6.9556138516        6.0232618695       -1.1308479481
 O        -7.1879413121        5.2365787995       -0.2237096854
 C        -6.2936374135        5.6426829248       -2.5177126942
 C        -6.2611656131        4.0841973961       -2.7526550439
 C        -5.0948642512        3.4198015919       -1.9752389712
 O        -4.3472634456        4.1356604021       -1.3355466324
 C        -5.0820890411        1.8374452605       -1.7942560974
 C        -5.9442529478        1.7686552781       -0.4184457473
 O        -7.0759678883        1.3790236545       -0.4846309793
 C        -5.1780007420        2.1533821969        0.8736981781
 C        -5.9293115785        3.1783114686        1.7670613688
 C        -7.1532970119        2.5463401478        2.4940652027
 O        -7.2586214224        1.3138085385        2.6317692310
 C        -8.1359370959        3.5754722981        3.1616479534
 C        -9.4631144673        3.7577129646        2.3090224264
 O       -10.1360699741        2.7610086438        2.0968681763
 C       -10.0128309438        5.0688454640        1.8645854703
 C       -10.7979439196        5.0682452634        0.4977390956
 C       -12.1687727632        4.3384221801        0.6858040168
 O       -12.9244246571        4.7806413028        1.5546149590
 C       -12.5888478025        3.2123638085       -0.3572844577
 C       -11.5400796736        2.0221601331       -0.4251642083
 O       -10.3517422250        2.2931968829       -0.6497014272
 C       -11.9677773830        0.5627215496       -0.1946408026
 C       -12.0809081729        0.2389737069        1.3230704228
 C       -11.1331516957       -0.9754233984        1.7042491996
 O        -9.9005000572       -0.8204179834        1.7083090594
 C       -11.6381780877       -2.3376308017        2.2684059985
 C       -12.5310152530       -3.0149064975        1.1536946858
 O       -13.6921660018       -2.7110109809        1.0716259321
 C       -11.8048832560       -3.9751407045        0.2470306625
 C       -10.5616872251       -3.1916033188        2.8295544624
 C       -12.6495970277       -2.0788105645        3.4601616440
 C       -13.9673690443        2.6633541769        0.0006156096
 C       -12.6847946186        3.8701506694       -1.7371992445
 C        -8.7068754596        2.8668896446        4.4523309616
 C        -7.4583452298        4.8977296219        3.5331846663
 C        -5.7484958111        1.1013215572       -2.9701404891
 C        -3.7191752310        1.2870466995       -1.5034160558
 C        -6.2181678323        8.4457079588       -1.5645289988
 C        -7.8403174171        7.9177224728        0.4637857982
 C       -13.2476645594       10.5707273788       -1.7476294163
 C       -13.5451337474        8.6172542221       -0.0467692236
 H       -14.8410523866        8.9618600686       -3.7788978679
 H       -14.1498813878        7.5523243184       -4.5507320400
 H       -13.2310321895        9.1125899782       -4.3573444944
 H       -10.7596977121       10.3770832502       -2.7597937350
 H       -10.9324146860        8.8496872470       -3.4997200145
 H        -8.8010109539        9.8776557412       -1.3604407931
 H        -8.3536710862        9.7129953780       -3.1118196620
 H        -5.2240511851        5.9834734792       -2.6093705203
 H        -7.0589154034        6.0337770144       -3.2217868168
 H        -6.2090554136        3.9501667365       -3.8115262168
 H        -7.2009159440        3.6438055166       -2.4171722946
 H        -4.1437109632        2.5478856959        0.6242174113
 H        -5.0274506177        1.3379725618        1.5270995686
 H        -6.3862442928        4.0656578220        1.2982246423
 H        -5.2300040615        3.6625514560        2.4863586320
 H        -9.2365950281        5.8667182146        1.7621985659
 H       -10.6849836542        5.4534283178        2.6059810487
 H       -10.1122737138        4.6564667084       -0.2908801147
 H       -10.9692761232        6.1247707826        0.1465648435
 H       -11.2029534017        0.0209938842       -0.7852708983
 H       -12.8897593592        0.4297995775       -0.7535861195
 H       -13.0974987360       -0.0001577061        1.5646126174
 H       -11.7572959664        1.0485470534        2.0062496604
 H       -11.0643416117       -3.5435530579       -0.3962352446
 H       -12.5525356443       -4.4264517488       -0.4154412284
 H       -11.3219894622       -4.7865373964        0.8064567138
 H        -9.6282326301       -3.1473822176        2.2491636814
 H       -10.8908018931       -4.2360314697        2.9309845455
 H       -10.3386242883       -2.7302010912        3.7671462880
 H       -13.6178581474       -2.0121344064        3.0032675480
 H       -12.3732400543       -1.2491315579        4.0541683046
 H       -12.6733057979       -3.0124660400        4.0673018235
 H       -14.6380840165        3.5112922517        0.0852596107
 H       -13.8960090927        2.1373805432        0.9617550594
 H       -14.2554541616        2.0501277057       -0.7979272880
 H       -13.4321926209        3.4597070066       -2.3858181402
 H       -11.7303145837        3.9520302986       -2.2970226118
 H       -12.9982206579        4.9085905285       -1.5913145424
 H        -8.8328055190        1.7826374730        4.1872745622
 H        -9.7255069203        3.2297369856        4.7313977251
 H        -7.9242550808        3.0241066477        5.2057103881
 H        -6.7933270081        4.6519700084        4.3800193992
 H        -8.1119553971        5.6984654408        3.6877720337
 H        -6.9120199712        5.2271558605        2.6394324587
 H        -5.1873750004        1.0803856901       -3.8803138431
 H        -6.7013700368        1.4990111058       -3.1721344798
 H        -5.9323288163        0.1078883793       -2.6422539349
 H        -3.2073157009        1.0093883970       -2.4186308738
 H        -3.7301995417        0.2693611519       -0.9351859770
 H        -3.0603127253        2.0134735861       -1.0189800898
 H        -6.2497892501        9.5495857448       -1.6295580911
 H        -5.9314132219        8.1327059682       -2.5353299472
 H        -5.4422997945        8.1883277510       -0.8420803472
 H        -7.4985620747        8.8889097432        0.7766369013
 H        -7.4044858092        7.1992502921        1.1297103521
 H        -8.8638294099        7.7244697714        0.6632859321
 H       -12.8637383775       11.1166778239       -0.8746395726
 H       -14.2989707720       10.7995263856       -1.8281986050
 H       -12.7558185167       10.9625403761       -2.6664927130
 H       -13.6283262076        7.5605925789        0.1174800602
 H       -14.5443586442        9.0926464458        0.0254114182
 H       -12.8321514618        8.9952051292        0.6954613659
 Na       -8.9203398544        0.9479560855        0.9340002823
