117

 C       -14.0214545508        8.5359947286       -3.9321778880
 C       -13.5302282007        8.1068157590       -2.4876248572
 O       -13.4926611141        6.9120590440       -2.2107544923
 C       -12.9141926105        9.1182080389       -1.4511967720
 C       -11.3864652609        8.8342912869       -1.4295299779
 O       -10.8511563921        8.2350590760       -0.4947542074
 C       -10.6077683441        9.2524405774       -2.6094358959
 C        -9.1248155433        9.1818653115       -2.3959275265
 C        -8.6242224011        7.7019853106       -2.1094083426
 O        -9.1600773171        6.7986323770       -2.6369837746
 C        -7.3661777006        7.4775382216       -1.1113038698
 C        -7.1087097571        5.9908497082       -1.1972656370
 O        -7.2887601414        5.2674252225       -0.2941026703
 C        -6.2856862483        5.6356068695       -2.3735632622
 C        -6.3755201611        4.1078143273       -2.6441484140
 C        -5.1774486304        3.4584279227       -1.8922277028
 O        -4.3241666831        4.1506778343       -1.3608553543
 C        -5.1280494115        1.8417075334       -1.7814537841
 C        -5.9530156272        1.7417854356       -0.4461407163
 O        -7.0951186424        1.3170538988       -0.4730993747
 C        -5.1974770507        2.0815383592        0.8089875263
 C        -6.0200834831        3.1627524499        1.6825680338
 C        -7.0961015495        2.6089044010        2.5697137013
 O        -7.1893813549        1.4153386082        2.7984517460
 C        -8.1381645486        3.6350811266        3.2033796220
 C        -9.4494171308        3.7494663803        2.2914168596
 O       -10.0677936586        2.7389023099        2.0780089965
 C       -10.0361867746        5.1531338087        1.7600679560
 C       -10.7893550755        5.0701940226        0.3823140737
 C       -12.1071097924        4.3105444692        0.6161946051
 O       -12.8635460990        4.6927749960        1.5172542467
 C       -12.6218407779        3.1743606245       -0.3637377296
 C       -11.5932958286        2.0121062931       -0.4048979753
 O       -10.4305529311        2.2165842356       -0.7029673183
 C       -12.0183206370        0.5027283288       -0.0346888355
 C       -12.0821959585        0.1596419881        1.4389488529
 C       -11.1218460175       -0.9746038992        1.8541148724
 O        -9.9533621269       -0.8611688701        1.7321051477
 C       -11.6845037282       -2.2856477169        2.3730163932
 C       -12.5436637707       -2.9935446472        1.0750744886
 O       -13.7088794447       -2.6701688120        1.0379801798
 C       -11.8055022772       -3.9253865628        0.2069153472
 C       -10.5083332503       -3.1651680515        2.8618100997
 C       -12.7503274537       -1.9471334242        3.4937126182
 C       -14.0475384896        2.6370981659        0.0471515995
 C       -12.5910254830        3.8893715556       -1.7818409543
 C        -8.6303127561        2.9725180580        4.5916971180
 C        -7.5441485677        5.0340501131        3.4312348735
 C        -5.7419717049        1.0817223052       -2.9248641116
 C        -3.6803977709        1.2841070008       -1.5914997499
 C        -6.1563930859        8.3639859952       -1.4298900492
 C        -7.7920757122        7.9406489509        0.3077789124
 C       -13.1667159689       10.5702440300       -1.6866777750
 C       -13.4630877176        8.6684516951       -0.0984753945
 H       -14.9766079871        9.0875207423       -3.7648477173
 H       -14.2505731995        7.5729066723       -4.3936778940
 H       -13.3543766128        9.1760858397       -4.4441214052
 H       -10.8570321122       10.3381668874       -2.8244087838
 H       -10.8966185320        8.6672560747       -3.5531526133
 H        -8.6614929260        9.9115922553       -1.7422681844
 H        -8.6871701609        9.3399775610       -3.3603342876
 H        -5.2797674544        5.6957756130       -1.9866703418
 H        -6.5540509821        6.2741547572       -3.2133144062
 H        -6.4145393755        3.9085204575       -3.7369451154
 H        -7.2526250912        3.6782672216       -2.1877875965
 H        -4.2860803594        2.6461051642        0.4772289290
 H        -4.8706410512        1.2511627382        1.4367025494
 H        -6.4340578343        4.0197707845        1.1939816592
 H        -5.2544763713        3.6503535743        2.3715409302
 H        -9.2926517193        5.9506052664        1.5932005782
 H       -10.7500084774        5.6401797846        2.4882888109
 H       -10.1254514370        4.5084350244       -0.3338712915
 H       -10.8784441404        6.0670888669       -0.0850034017
 H       -11.3516155024       -0.0312858482       -0.6770632476
 H       -13.0137048804        0.3267700400       -0.4963752792
 H       -13.1384072203       -0.1030754069        1.6688664383
 H       -11.7737004389        0.9761735708        2.1047567575
 H       -10.9977501385       -3.4248765316       -0.2531644170
 H       -12.4169222515       -4.2714651841       -0.5969580412
 H       -11.3653418656       -4.8177889785        0.7837608849
 H        -9.7336150416       -3.2093736291        2.0518186286
 H       -10.8059251647       -4.2398604167        3.1512338060
 H       -10.0310092125       -2.6014915052        3.6494696213
 H       -13.6880319117       -1.7301556246        2.9997640640
 H       -12.4188056415       -1.2128918555        4.1980075494
 H       -12.8534127992       -2.8859923384        4.0370578644
 H       -14.6235658217        3.4911177472        0.4619995141
 H       -14.0014268645        1.8674219522        0.8013605571
 H       -14.4895928614        2.2968866081       -0.8509834586
 H       -12.8040232247        3.2420192005       -2.6340329251
 H       -11.6132707072        4.3456577598       -1.9992667074
 H       -13.3323112277        4.7228258519       -1.8293930193
 H        -8.8925556643        1.9436098605        4.3355036235
 H        -9.5507265380        3.4288659462        4.9876090238
 H        -7.7551757088        2.9889794180        5.1987759650
 H        -6.5524513902        4.8767053776        3.8246726136
 H        -8.1559513728        5.8064990293        4.0834426549
 H        -7.5328386445        5.4984646294        2.4214190273
 H        -5.0138736987        1.0216141154       -3.7547656374
 H        -6.6644481191        1.4370101723       -3.3536042706
 H        -5.8357257954        0.0523765964       -2.5645370869
 H        -3.3237634251        0.5586837952       -2.2677401635
 H        -3.7100515749        0.6903435363       -0.6203114105
 H        -2.9312284667        2.0944042178       -1.4601671305
 H        -6.5399108363        9.3099687010       -1.7776089832
 H        -5.5596496246        8.0954907511       -2.3030772248
 H        -5.5930086977        8.5065959774       -0.5884470480
 H        -7.2321568131        8.8244041727        0.5612903863
 H        -7.5363935985        7.1925257349        1.0041350142
 H        -8.8880937312        8.0076828015        0.4898441614
 H       -12.4065506339       11.1776845823       -1.1727360698
 H       -14.1335819490       10.8576939080       -1.2291056642
 H       -13.2401775513       10.8383331375       -2.7588119073
 H       -13.5045739871        7.5775397196        0.0389586774
 H       -14.4221561645        9.1248603662       -0.0323623667
 H       -12.7455558565        8.9761976694        0.6641049513
 Na       -8.9483110682        1.0666621042        0.9169938426
