117

 C       -14.3100111930        8.7858140585       -3.6913977101
 C       -13.4463257136        8.1704627605       -2.5216364795
 O       -13.1935792968        6.9964563935       -2.4433499701
 C       -12.8028545463        9.1241286213       -1.4062481456
 C       -11.2756112810        8.6796042244       -1.5324898228
 O       -10.7949842479        7.9143615917       -0.6706109358
 C       -10.5528226354        9.0497939157       -2.8288739367
 C        -9.0728262279        9.1472011193       -2.6592362203
 C        -8.5892885678        7.6571342451       -2.1677990899
 O        -9.0189595624        6.6398398643       -2.6234839491
 C        -7.4266842737        7.5970790476       -1.1735008895
 C        -7.2059947252        5.9974708808       -1.1951318991
 O        -7.5836724018        5.2710219818       -0.3439284370
 C        -6.4428204650        5.4761976839       -2.3902684471
 C        -6.3470962943        3.9276689493       -2.4859581189
 C        -5.0657699392        3.3419018041       -1.8097546157
 O        -4.1196404017        4.0474935074       -1.4664743102
 C        -5.1052881816        1.7457923198       -1.6207507395
 C        -5.9271555859        1.5179138542       -0.3554113826
 O        -7.0613527361        1.1130740709       -0.4529341027
 C        -5.3925034553        1.9828055893        1.0011326064
 C        -6.1623947176        3.2028259831        1.4329736290
 C        -7.1992545889        2.8385968953        2.5878502996
 O        -7.4452362918        1.6808900100        2.8409285094
 C        -8.1249561048        3.9978730187        3.3216398293
 C        -9.3466044366        3.9633128189        2.3615536611
 O        -9.8955484178        2.8938620680        2.2643480243
 C        -9.9645459264        5.1314875416        1.6309503297
 C       -10.7577678393        4.8179186607        0.2446175112
 C       -12.0714632377        4.1454251243        0.5398363857
 O       -12.6159962879        4.3098313605        1.6497517521
 C       -12.6400710076        3.0597102596       -0.4443557031
 C       -11.7377690646        1.8368154208       -0.3443554326
 O       -10.5441316680        1.9342703633       -0.6347925000
 C       -12.3043990557        0.5025981234        0.0936838081
 C       -12.1406783676        0.3529978213        1.6265375495
 C       -11.1598237695       -0.8968001583        1.9479606195
 O        -9.9991887738       -0.8298501229        1.6005988091
 C       -11.7911908346       -2.2422748371        2.5199867806
 C       -12.5124450419       -2.7885770951        1.2678763047
 O       -13.6179899098       -2.4281695666        0.9559626337
 C       -11.7581251956       -3.6362187999        0.3101956277
 C       -10.6586024217       -3.2076292274        3.0228094216
 C       -12.8666611296       -2.0122611752        3.6252863970
 C       -14.1440261600        2.7295580310       -0.1361887192
 C       -12.5093932240        3.5868233478       -1.9345274728
 C        -8.6038889589        3.4578830558        4.6974958979
 C        -7.3879375871        5.4144006176        3.2983802083
 C        -5.8503097293        1.0324766909       -2.8707844217
 C        -3.7203472881        1.1116344182       -1.6443064017
 C        -6.2241347910        8.4672143962       -1.6151135448
 C        -7.7796981011        8.0354792637        0.2807383384
 C       -12.9695629387       10.7212371438       -1.6286910250
 C       -13.2610032570        8.7221999053       -0.0053054409
 H       -15.0736636923        9.3779413366       -3.2198267981
 H       -14.7468477407        7.9210835445       -4.2039983077
 H       -13.7431077320        9.4934361002       -4.2303465992
 H       -10.9621331765        9.9311641853       -3.1438023715
 H       -10.7201002148        8.3333541028       -3.5686535632
 H        -8.6699307580        9.9908726804       -1.9858358654
 H        -8.5169249554        9.3770174453       -3.6059047061
 H        -5.3898852927        5.8823279840       -2.2460341827
 H        -6.9878197741        5.8711378711       -3.2614385264
 H        -6.4082374233        3.5870138402       -3.5064959087
 H        -7.2674477354        3.5896197594       -1.9959436528
 H        -4.2452160552        2.0806096760        1.0194790189
 H        -5.5990412369        1.0978240935        1.5300314916
 H        -6.6552066006        3.6784282362        0.5700128729
 H        -5.5109808393        4.0009628414        1.8262524130
 H        -9.1876372617        5.8477625955        1.3344790337
 H       -10.5317883615        5.6960068912        2.2993186175
 H       -10.1137416668        4.2163550733       -0.4161660932
 H       -10.8568888457        5.7476266616       -0.3343556224
 H       -11.7621775002       -0.2277880612       -0.5316640015
 H       -13.3255939042        0.3904330383       -0.2676218051
 H       -13.0934961287        0.1621980179        2.0524742854
 H       -11.6415462846        1.2228851744        2.0658390013
 H       -10.7561085185       -3.3285420405        0.2217411676
 H       -12.1571439788       -3.6287708780       -0.6827175035
 H       -11.6806338007       -4.6936168719        0.7339542420
 H        -9.8999856649       -3.5294644158        2.3517702053
 H       -11.1928581687       -4.1114709706        3.3338543479
 H       -10.2568895978       -2.7691476504        3.8547162844
 H       -13.5556665070       -1.2843672069        3.2139108390
 H       -12.4023959674       -1.7191303484        4.5547877210
 H       -13.2751466534       -3.0159593786        3.9265245077
 H       -14.8414651758        3.5746528226       -0.3807477192
 H       -14.2311770826        2.5373149930        0.9590285449
 H       -14.3972818381        1.8533900820       -0.6558866591
 H       -12.2241655113        2.8370137895       -2.6185406900
 H       -11.6764184501        4.2898450515       -2.0593492211
 H       -13.4290090701        4.0527044832       -2.2788471903
 H        -9.2159603376        2.5619261077        4.4743068177
 H        -9.2790183652        4.2311956508        5.0990238778
 H        -7.7569676038        3.1326593088        5.2568172436
 H        -6.8448556841        5.5874460117        4.1862030735
 H        -8.1358163502        6.2054862103        3.3474380296
 H        -6.7907860423        5.5499669760        2.4276201561
 H        -5.6421242126        1.4674521560       -3.8551613867
 H        -6.9023750925        1.0834240393       -2.7692464271
 H        -5.4890921927        0.0177411283       -2.9430644236
 H        -3.7867393107        0.0718029153       -1.6942704857
 H        -2.9609845658        1.4132769092       -0.8194162104
 H        -3.2371504908        1.4886124423       -2.5279208541
 H        -6.3465657551        9.5544440453       -1.3177265203
 H        -6.1201403024        8.6374642527       -2.7114521130
 H        -5.3760738904        7.9860542132       -1.1766948798
 H        -7.9517102440        9.1261929147        0.3618690809
 H        -7.0616176553        7.7196445399        1.0328111589
 H        -8.7143805753        7.5073401978        0.5406196129
 H       -12.0416863060       11.2087021017       -1.3984475120
 H       -13.6702605220       11.1349105120       -0.9574186028
 H       -13.2888505011       11.0015656197       -2.6293664376
 H       -12.7392987390        7.8151149424        0.2243057883
 H       -14.3377552379        8.6262111724       -0.0895482141
 H       -12.9301711344        9.4035058979        0.7904486286
 Na       -8.8891136224        1.0397569120        0.8901336031
