117

 C       -14.7023904457        9.0239396836       -3.1940258500
 C       -13.5635673663        8.2065349468       -2.5400211477
 O       -13.4359100034        7.0196569458       -2.6901639597
 C       -12.7184212530        9.0821934071       -1.4992963537
 C       -11.2216314266        8.7507576130       -1.6771760833
 O       -10.6316989788        8.1235239349       -0.7811984138
 C       -10.4966180142        9.1132003729       -2.9544011165
 C        -8.9673101616        9.1436881013       -2.6733602567
 C        -8.4155664527        7.7091821407       -2.3978487413
 O        -8.9675752822        6.7551768286       -2.8754873326
 C        -7.3068039873        7.5632385617       -1.3930881583
 C        -7.0152128174        5.9806456940       -1.1987869279
 O        -7.3504852216        5.3765755897       -0.1962603165
 C        -6.1817500174        5.3617082794       -2.3403380415
 C        -6.2908085330        3.8323910848       -2.4098139261
 C        -5.0978856024        3.1387652863       -1.7618688112
 O        -4.0572444793        3.7626663235       -1.5070785703
 C        -5.1720589563        1.6458012234       -1.6122568088
 C        -6.1174965712        1.3698157196       -0.2959368662
 O        -7.1670441601        0.8154206773       -0.3954947809
 C        -5.5157674431        1.9655013917        1.0816862467
 C        -6.0694812167        3.1945721695        1.6826505971
 C        -7.3035153142        2.9932392850        2.5480151187
 O        -7.5975413680        1.8308871999        2.7240135738
 C        -8.1019883326        4.2064454459        3.1031719723
 C        -9.5256583265        4.1026978234        2.2721808090
 O        -9.9340310004        2.9588397053        2.1394498391
 C       -10.1329363917        5.2473648152        1.5410415918
 C       -10.8252558061        4.8016399257        0.2490596275
 C       -12.0075061675        3.8682677537        0.6066309753
 O       -12.5823662414        3.8311009532        1.7171349772
 C       -12.5681239608        3.0233540384       -0.5536737484
 C       -11.7532573938        1.7235883408       -0.2567169462
 O       -10.5507990371        1.7050520497       -0.4885075851
 C       -12.4031117710        0.5118584886        0.3628142552
 C       -12.0336842824        0.3840481705        1.9137915464
 C       -11.1896230646       -0.8527713076        2.1388983211
 O        -9.9766917969       -0.8610684876        1.7998250947
 C       -11.8467213600       -2.1602969698        2.6425520947
 C       -12.6050970600       -2.7305992351        1.2711215263
 O       -13.6004026273       -2.1707495204        0.9172058432
 C       -11.7809876485       -3.5948805772        0.3544531805
 C       -10.8255588292       -3.1831881712        3.1778986976
 C       -12.9752128553       -1.9647483500        3.7757650428
 C       -14.1419302306        2.9145278217       -0.3770479912
 C       -12.2286053179        3.5543897812       -1.9881588052
 C        -8.4792726137        3.9176735940        4.6415792223
 C        -7.4019845109        5.4888195346        2.8571886761
 C        -5.7780451754        0.8600045052       -2.8373362239
 C        -3.7568490654        1.1646096870       -1.3668037043
 C        -6.1446352932        8.2746825181       -2.0698834299
 C        -7.6362830178        8.2181859212        0.0293688116
 C       -12.9829839823       10.5978583048       -1.5593883801
 C       -13.3121929701        8.6532875409       -0.0829281981
 H       -15.2829801009        9.5467389389       -2.4527734509
 H       -15.2793375170        8.2905699917       -3.8236419886
 H       -14.1962735240        9.8498814586       -3.7513984935
 H       -10.7431357896       10.1456877641       -3.3240057450
 H       -10.8522620846        8.3579462358       -3.7605433842
 H        -8.8708537441        9.6227802249       -1.7089535911
 H        -8.4243054381        9.7352138193       -3.3482013162
 H        -5.1674463724        5.6238459550       -2.0780508455
 H        -6.4587807681        5.8023694068       -3.2614885295
 H        -6.4816642178        3.5393435706       -3.4455390814
 H        -7.2389291841        3.5314209101       -1.8656936279
 H        -4.4077441113        2.0593187301        0.8117123338
 H        -5.5413971831        1.1797190381        1.8620902376
 H        -6.3595611679        3.9890939253        0.9239339137
 H        -5.2523493311        3.5597844608        2.2756231099
 H        -9.3531974519        6.0586020543        1.4604447655
 H       -10.8968944591        5.7425075207        2.1511322750
 H       -10.1657828893        4.1719857116       -0.3350118650
 H       -11.1598978198        5.5620876051       -0.4459843884
 H       -12.1121758679       -0.4323888517       -0.1741315027
 H       -13.4730410652        0.6225823918        0.2122892307
 H       -12.8781280343        0.3619038128        2.5900409946
 H       -11.3328870489        1.2297548944        2.1401992889
 H       -10.8076081362       -3.1423341491        0.1528556383
 H       -12.3243885831       -3.6733798604       -0.5930893715
 H       -11.5299127331       -4.5921650923        0.7339954111
 H        -9.7993543333       -3.1425054138        2.7089710597
 H       -11.1515729518       -4.2371296507        2.9203171772
 H       -10.7650205160       -3.1192205879        4.2676602407
 H       -13.8055575378       -1.5566080267        3.2281631293
 H       -12.6900318729       -1.2079568650        4.4832925499
 H       -13.2056143874       -2.8992447088        4.3353574264
 H       -14.5455395903        3.9300339752       -0.3897773322
 H       -14.4454625689        2.4387342760        0.5862508792
 H       -14.6123666296        2.3976877215       -1.1949455931
 H       -13.0885696790        3.4017394769       -2.6441257821
 H       -11.4141384835        2.9750918082       -2.4810396737
 H       -12.0432626405        4.6296699734       -2.0000571886
 H        -8.8103455869        2.8985996570        4.7767235750
 H        -9.1661416202        4.7026821696        4.9206789337
 H        -7.5616477331        4.0368058416        5.2017420400
 H        -6.3085847612        5.4951805995        3.1969407305
 H        -7.8218643659        6.2586660919        3.4505210302
 H        -7.3437631069        5.6266699868        1.7458301310
 H        -5.0710512768        0.8268413761       -3.7041187859
 H        -6.7058024563        1.3577869195       -3.1584340334
 H        -6.0508602245       -0.1869272908       -2.6020776675
 H        -3.6221227436        0.7551711301       -0.3928954763
 H        -2.8527827103        1.7731828096       -1.7250614722
 H        -3.7070258595        0.3047296227       -1.9478426741
 H        -6.4837039588        9.3117620685       -2.2386875544
 H        -5.8260991030        7.7811265510       -2.9701463711
 H        -5.2709217701        8.2608286589       -1.4117077823
 H        -8.6574214203        8.5989865085        0.0680199019
 H        -6.8876781021        8.9749049307        0.3501699756
 H        -7.7508340466        7.4290691928        0.7519841591
 H       -12.5759624953       11.1271927059       -0.6730224736
 H       -14.0130997418       10.9115377890       -1.7148215673
 H       -12.3738978452       10.9700002957       -2.4146679844
 H       -13.5279010373        7.6060872625       -0.1194720980
 H       -14.1772153571        9.3124859530        0.1729884347
 H       -12.5233932193        8.8246682510        0.6516712301
 Na       -8.9401640695        0.9176456487        1.1161444992
