117

 C       -15.0788800945        9.0448193640       -3.1314688488
 C       -13.8199102548        8.3740785547       -2.5235898988
 O       -13.4758121896        7.2436677650       -2.8397888681
 C       -12.8493332385        9.1158002181       -1.4740351307
 C       -11.2947465509        8.7119386536       -1.5796436091
 O       -10.6862238637        8.2018430457       -0.6909906759
 C       -10.5589681749        9.1444181552       -2.9339516646
 C        -8.9888540524        9.0566794856       -2.8655466492
 C        -8.3286405400        7.7268188955       -2.6161950051
 O        -8.8196910416        6.6766598830       -3.0319734976
 C        -7.1047018486        7.6477536339       -1.5422004194
 C        -6.8152703886        6.0946558082       -1.3657864808
 O        -7.2285075349        5.5351810079       -0.3226847135
 C        -6.1024709447        5.3131769397       -2.5381612796
 C        -6.3416237947        3.8001128395       -2.3441424424
 C        -5.1084397066        3.0797920780       -1.7554804093
 O        -4.0952451298        3.6080174765       -1.4584645251
 C        -5.1559898043        1.4914253656       -1.4783257243
 C        -5.9375918708        1.3298428157       -0.1961538202
 O        -7.1271424712        1.0200120378       -0.3232526140
 C        -5.3961473829        1.6619551984        1.2230073693
 C        -5.9875699756        3.1312886793        1.5723708686
 C        -7.2421672402        3.0212771434        2.4797222624
 O        -7.5506105520        1.9212608044        2.9536008021
 C        -8.0640897134        4.2447733911        2.8820632789
 C        -9.4358618917        4.0046474642        2.1429200026
 O        -9.9907161381        2.9174384600        1.9537383569
 C       -10.2345926998        5.2860488165        1.6961812506
 C       -10.9392117803        5.0354088314        0.3764956392
 C       -12.1088985755        3.9801631358        0.6268243995
 O       -12.6696034952        3.8456085098        1.6639834581
 C       -12.5551545100        2.9980952651       -0.5641360843
 C       -11.7496719682        1.6757932361       -0.1541305969
 O       -10.5682300101        1.5900314840       -0.4865142983
 C       -12.4207833135        0.5124051222        0.5824994697
 C       -11.9956340173        0.4120308570        2.0683867618
 C       -11.1898608620       -0.9261317328        2.2956755362
 O       -10.0057142313       -0.9123515420        2.1113134616
 C       -11.9434273575       -2.2173292476        2.6739124655
 C       -12.6560057985       -2.6867772879        1.3225644591
 O       -13.7159476234       -2.1890881158        0.9474105441
 C       -11.8380048523       -3.6653064926        0.4678781978
 C       -10.9744503404       -3.2903707215        3.2391366037
 C       -13.0381121486       -1.8972356871        3.6537459629
 C       -14.0999910577        2.8412742154       -0.6352633185
 C       -12.0304041879        3.4949671504       -1.9593490182
 C        -8.4313243059        4.0398234825        4.3721637351
 C        -7.3904683854        5.6340006291        2.7950945715
 C        -5.8689450639        0.7529661976       -2.5951188775
 C        -3.7510672895        0.8044357675       -1.2295385423
 C        -5.8521983190        8.3878424733       -2.1703135804
 C        -7.4317741933        8.3451042311       -0.1978217012
 C       -12.9995224411       10.6365335948       -1.5860925290
 C       -13.1957672166        8.4799283979       -0.0611439424
 H       -15.7724942816        9.1808899711       -2.2628982188
 H       -15.4481187758        8.3686526838       -3.8684218142
 H       -14.8767442620       10.0481691970       -3.5350324728
 H       -10.6591093969       10.1827540615       -3.0671550691
 H       -10.9459383577        8.7103840768       -3.7697542185
 H        -8.5915758672        9.6540640668       -2.0092227725
 H        -8.5918906976        9.4842758482       -3.8654043511
 H        -4.9927653704        5.4838018902       -2.6248425268
 H        -6.5711161795        5.6691282352       -3.5160228366
 H        -6.5552131772        3.4852325790       -3.3787519333
 H        -7.2228448889        3.4954477608       -1.8372688934
 H        -4.3688161723        1.6230744960        1.1166942779
 H        -5.6349764459        0.9203960191        2.0062319067
 H        -6.2417003709        3.7849195515        0.7438372914
 H        -5.1372631025        3.5403324838        2.1878436298
 H        -9.6651480578        6.1585123181        1.6279383949
 H       -11.0322481792        5.5757214509        2.3843836067
 H       -10.2674113688        4.7827580396       -0.4609958042
 H       -11.4667377253        5.9680679890        0.1110482079
 H       -12.0089579305       -0.3948378494        0.1574635307
 H       -13.5438402592        0.4408249733        0.5490438719
 H       -12.9169575985        0.4168666378        2.6755019258
 H       -11.3906193265        1.2299020128        2.3781560419
 H       -10.8203517428       -3.2356303794        0.3710687250
 H       -12.2338389530       -3.8927980018       -0.5286292428
 H       -11.6504137020       -4.5859613756        0.9623464799
 H       -10.4091966224       -3.6353638008        2.4373523477
 H       -11.4198400215       -4.1352275186        3.6541866275
 H       -10.2866658612       -2.9374852817        4.0211927470
 H       -13.9526492239       -1.4876764069        3.1283070591
 H       -12.6879485726       -1.0975741036        4.3895819473
 H       -13.2831332006       -2.8470628305        4.1323704047
 H       -14.5201673772        3.7128136337       -1.1509009234
 H       -14.5847307784        2.6566248463        0.3108934557
 H       -14.3404265073        1.9726272223       -1.3348310673
 H       -12.6511111336        3.0706449699       -2.7626432023
 H       -11.0160252950        3.1787980378       -2.1502595524
 H       -12.1243037597        4.5725089142       -2.0439253438
 H        -8.9014569450        3.0792566192        4.4473560971
 H        -9.0026754751        4.9051917150        4.6783537615
 H        -7.5435865180        4.0974319107        5.0124624069
 H        -6.3844045140        5.5762702631        3.1174503760
 H        -7.9243716165        6.3307450949        3.4427818734
 H        -7.2747517830        5.9233942179        1.7894969598
 H        -5.4479442369        0.8069065294       -3.5955677233
 H        -6.9772202268        0.8951942804       -2.5927845527
 H        -5.7757805497       -0.3075641945       -2.2801926198
 H        -3.3441283329        1.2873073404       -0.3147920481
 H        -3.0917666543        0.9853777514       -1.9699147061
 H        -3.7343769002       -0.3044734048       -0.9813326657
 H        -6.0955492326        9.4456542345       -2.2134017937
 H        -5.5454291603        7.8461069796       -3.0979864575
 H        -4.9326008146        8.3215395569       -1.5312500911
 H        -8.4523704486        8.2554941654        0.1797978815
 H        -7.1125610313        9.3655315354       -0.3959323755
 H        -6.8777072996        7.9073466279        0.6555829761
 H       -12.1618318575       11.1109675889       -1.1038984031
 H       -13.8917013787       10.9588896190       -1.0374356094
 H       -13.0227939064       11.0103472333       -2.5858487739
 H       -13.1261865226        7.3746884972       -0.1879733661
 H       -14.1884451543        8.7881886611        0.1934351856
 H       -12.5489686462        8.9383816538        0.6822577269
 Na       -9.0336149942        1.0179710246        1.1388103457
