117

 C        -1.0000587907        7.7474888927        2.1958891463
 C        -1.6032009929        9.1911368365        2.3637231168
 O        -1.4814061645        9.8302073137        3.3760587199
 C        -2.7293163273        9.7940686606        1.2516173250
 C        -3.8390521834        8.7374570230        1.4881617679
 O        -4.0099980324        7.8677124997        0.6309427688
 C        -4.6761010030        8.8293314540        2.7054406188
 C        -5.4566798999        7.5132850645        3.0672621644
 C        -6.9704446181        7.6409255008        3.0621039876
 O        -7.5794132727        8.6186968536        2.6933263045
 C        -7.8497026459        6.3772704602        3.5307742812
 C        -9.2498117867        6.3845775179        2.9032141266
 O       -10.2428906449        5.9503314035        3.4920818513
 C        -9.3049105292        6.4968227855        1.3952142670
 C       -10.7247701213        6.6315774086        0.8712238619
 C       -11.4082994605        5.2683691070        0.9461528233
 O       -10.7559128140        4.2318131021        1.0482445248
 C       -12.9863071694        5.1453289778        1.0498539981
 C       -13.5565659821        4.1333271950        0.0101489672
 O       -12.7328924610        3.7677556013       -0.8395927924
 C       -15.0002615845        3.6156726172        0.0995669336
 C       -15.2761500920        2.3158392529       -0.5576013917
 C       -14.7204479648        1.1329635513        0.2329335934
 O       -13.8424043545        1.3485320586        1.0580228734
 C       -15.0793124128       -0.2346578772       -0.2481766928
 C       -13.6392138665       -0.6297315845       -1.1378268061
 O       -12.7010737175        0.0881812295       -0.9812226649
 C       -13.6945177493       -1.7739175208       -2.0584642126
 C       -12.8208071356       -1.7294304466       -3.2789850178
 C       -12.8103699782       -0.3673003346       -3.9898870352
 O       -13.5467943622        0.5936934161       -3.7468889054
 C       -11.7958923458       -0.2648032109       -5.1616563557
 C       -10.2849941875        0.0786760685       -4.6304994548
 O        -9.4962800758       -0.8405426132       -4.5104083483
 C        -9.8580426480        1.5770238187       -4.2625930642
 C        -8.7222812293        1.6214066619       -3.2304737855
 C        -9.2230122456        1.8835490084       -1.8264466764
 O       -10.3134748843        2.3955643091       -1.6664235255
 C        -8.2864477694        1.5060911128       -0.7095251753
 C        -9.1065420441        0.4346062709        0.1910090550
 O       -10.0599716650        0.6763034172        0.8885038632
 C        -8.4690793880       -0.9933306734        0.2015003667
 C        -6.8790053268        1.0554871748       -1.1392476473
 C        -8.0403718023        2.7166086186        0.2067793138
 C       -11.6309529143       -1.6475067837       -5.8572303007
 C       -12.2504610114        0.9182545001       -6.1106562672
 C       -15.1370112238       -1.1137345437        1.0235777274
 C       -16.3549092829       -0.2714717820       -1.0993218237
 C       -13.5625534993        4.8771199470        2.4482734159
 C       -13.6980886126        6.5088230292        0.6703966063
 C        -7.1179962237        5.0350068902        3.1434445371
 C        -7.9998650886        6.5896078748        5.0645652868
 C        -2.9714942999       11.1976652635        1.7494969213
 C        -2.2394528594        9.6547134982       -0.1667482737
 H        -1.3212671104        7.4858115522        1.1684458138
 H        -1.4372102109        7.0505613916        2.9070588088
 H         0.1107790458        7.7021473004        2.1258423686
 H        -5.3108640402        9.7473094255        2.7010876117
 H        -4.0324359987        9.1323905192        3.6143393070
 H        -5.0722475205        7.0625766759        3.9772122668
 H        -5.1420994461        6.8703373215        2.2957341865
 H        -8.9258405585        5.5436232338        1.0183972143
 H        -8.6068689704        7.1510365977        1.0068816304
 H       -10.6417896999        7.0391529265       -0.1081137312
 H       -11.3172824179        7.3874591810        1.4313691616
 H       -15.6946934768        4.2442714254       -0.5457575851
 H       -15.5145907468        3.7589036641        1.0464757308
 H       -14.9995902173        2.3314854243       -1.6381732582
 H       -16.3827113772        2.1230391396       -0.6035524766
 H       -14.7960522664       -1.8763716401       -2.3274565751
 H       -13.6790715443       -2.8045546824       -1.6220836228
 H       -13.1872093816       -2.4811822302       -4.0163000342
 H       -11.7790411062       -1.9979000693       -2.9603088138
 H       -10.7272341586        2.0722086352       -3.7257775155
 H        -9.6029617605        2.1357645493       -5.1945352027
 H        -8.0897011226        2.4952148435       -3.4480817384
 H        -8.0782969990        0.7914486000       -3.3932761029
 H        -8.3425166391       -1.2511991197       -0.8673105237
 H        -9.1912800443       -1.6795359918        0.6319755187
 H        -7.6316015294       -0.9949546984        0.9322578262
 H        -6.2813633768        1.8254993042       -1.7072262761
 H        -6.9190209972        0.2008420909       -1.8597054603
 H        -6.3232518830        0.6803579272       -0.3373983794
 H        -8.9141776410        3.1661322294        0.6527937584
 H        -7.5484246888        3.5261317286       -0.4542838636
 H        -7.3604993042        2.2949012857        0.9296138745
 H       -12.5418097177       -1.9016062589       -6.4283794043
 H       -11.3374128377       -2.4507103061       -5.2383185876
 H       -10.8383590070       -1.4458440800       -6.6531470098
 H       -12.6713579138        1.6959461311       -5.5373219985
 H       -13.0362986623        0.5801787980       -6.8078376016
 H       -11.4267138095        1.2236279669       -6.7700261588
 H       -15.9316370514       -0.8385914964        1.7194845440
 H       -14.1835764738       -0.9474833415        1.5658271432
 H       -15.1707715525       -2.2135357512        0.7852817220
 H       -17.1787601313        0.1639783284       -0.5236546792
 H       -16.6760169723       -1.3254326598       -1.1208329392
 H       -16.2594892330       -0.0202283737       -2.0867465518
 H       -14.5970970665        5.0683197648        2.5138848843
 H       -13.0789097982        5.5590605556        3.1436893034
 H       -13.5090754138        3.8326227966        2.9767616426
 H       -13.4659555949        6.7578735964       -0.3516454811
 H       -13.3254152151        7.3774416279        1.2481622961
 H       -14.7991113013        6.4716703280        0.8364080968
 H        -6.1152267669        4.9417492406        3.5656746214
 H        -7.0351783864        4.8953495912        2.0831014690
 H        -7.7946119940        4.3022148079        3.5500595971
 H        -7.5239545489        7.4716805845        5.4667358016
 H        -7.6990927290        5.6813763769        5.6272231821
 H        -9.0702431898        6.7184182482        5.2976165903
 H        -3.7334893830       11.2412580359        2.5262404449
 H        -3.2454372367       11.8066638288        0.8513166765
 H        -2.0214716033       11.5860438927        2.2379921119
 H        -3.0441739665        9.6289330326       -0.9102747656
 H        -1.6618937225        8.7374990481       -0.4258689464
 H        -1.6759141552       10.5944489355       -0.4088919199
 Na      -11.5840678819        2.1042423195        0.3156834701
