117

 C       -15.0964542031        8.9181187089       -2.6832008213
 C       -13.6379483208        8.4617597941       -2.5791297063
 O       -13.1843976859        7.7108486243       -3.4159260248
 C       -12.7621450692        9.1131193244       -1.4220055531
 C       -11.3347077619        8.5442879728       -1.5498075900
 O       -10.7421314034        8.0833491585       -0.5447119807
 C       -10.7125182943        8.6461763847       -2.9242185188
 C        -9.2074013211        8.8541956554       -2.8094804532
 C        -8.3591902085        7.5033821507       -2.7959004204
 O        -8.6312811746        6.5986183264       -3.5289587878
 C        -6.9910784519        7.5284803091       -2.0157713324
 C        -6.6207323543        6.0182773234       -1.5832107539
 O        -6.9657424148        5.6153862494       -0.4986484979
 C        -6.0118502259        5.1296148980       -2.6770358923
 C        -6.1197317646        3.5983471324       -2.5827024437
 C        -5.0524477282        3.0197362175       -1.7370835720
 O        -4.0569398428        3.6357315626       -1.3988394758
 C        -5.2606891783        1.4568573334       -1.3493549201
 C        -6.0571906672        1.4103947773       -0.0199913781
 O        -7.1617199912        0.9687603951       -0.0204696874
 C        -5.3299821625        1.9149513717        1.2928849121
 C        -5.9750825207        3.2589715442        1.8986765734
 C        -7.2230805530        3.0702677626        2.6557717775
 O        -7.6234229187        1.9932081216        3.0320168263
 C        -8.1524896685        4.3835077798        2.9132279485
 C        -9.3877096215        4.2006719065        1.9175789687
 O        -9.5460558377        3.1073172973        1.4311321092
 C       -10.3874580059        5.3172373076        1.7330243073
 C       -11.2350459393        5.2295397196        0.4832888124
 C       -12.2544217544        4.0279557501        0.5294538467
 O       -13.0029474554        4.0177650659        1.5145797359
 C       -12.3432569221        3.0040247765       -0.6429429495
 C       -11.7176390211        1.6062758060        0.0431095635
 O       -10.5641338840        1.3289942946       -0.1892385913
 C       -12.6126845479        0.7035660223        0.8363644169
 C       -12.0200740157        0.4922371508        2.3445998429
 C       -11.3533730605       -0.8817448790        2.4664354219
 O       -10.1398992607       -1.0376109052        2.1744303367
 C       -12.1617224639       -2.1376947350        2.8513971301
 C       -12.7335292368       -2.6639004780        1.4245607232
 O       -13.8228569719       -2.3294644670        1.0718670046
 C       -11.9838391282       -3.7696505612        0.6985270829
 C       -11.2535093330       -3.2218956860        3.4251562394
 C       -13.2948602925       -1.8429291467        3.9246072141
 C       -13.8219886241        2.9202115255       -1.0495366872
 C       -11.4988903625        3.4725154558       -1.8036731361
 C        -8.7138834976        4.2131532276        4.4200132293
 C        -7.4844631100        5.7362600580        2.6844944964
 C        -6.0164904898        0.7275943851       -2.4875717145
 C        -3.9070377414        0.7546401360       -1.2442729027
 C        -6.1004236234        8.0584137290       -3.1236899860
 C        -6.9146694422        8.4355130103       -0.6971616373
 C       -12.6829745398       10.6459051304       -1.4588809882
 C       -13.2831675519        8.7896125505        0.0639823198
 H       -15.4118637598        9.2862923326       -1.7439261813
 H       -15.7530390711        8.1081925578       -3.0727392779
 H       -15.1158385616        9.5876554157       -3.5725051170
 H       -11.1043373829        9.4886987097       -3.3756664132
 H       -10.9721460395        7.8587230197       -3.5686749863
 H        -8.9174795530        9.4473334100       -1.9144498890
 H        -8.7384991504        9.3447558454       -3.7376915582
 H        -4.9376062870        5.4632179694       -2.7624447724
 H        -6.4267737616        5.6060797999       -3.6062654380
 H        -6.0588476944        3.1244029113       -3.5466522673
 H        -7.1294451709        3.3769513430       -2.2487298572
 H        -4.2749853163        1.9729477575        1.0005610463
 H        -5.3718132794        1.1199552709        1.9716122267
 H        -6.2397820137        3.9165789722        1.0192897544
 H        -5.2016788047        3.6618661122        2.5485973140
 H        -9.8983332341        6.2711624043        1.8154064709
 H       -11.0160648725        5.3364737063        2.5981415728
 H       -10.5699626390        5.0004812230       -0.3468603326
 H       -11.8193370169        6.1697861058        0.3510999265
 H       -12.6422773861       -0.3242409021        0.4299338874
 H       -13.6012046882        1.0257759809        1.0295811120
 H       -12.8280677130        0.5379019515        3.0409447217
 H       -11.4510394043        1.3999218238        2.5686183291
 H       -10.8998068486       -3.6344246493        0.6645690101
 H       -12.3991599658       -3.9564942983       -0.2877562494
 H       -12.1666292872       -4.7188938030        1.2103633869
 H       -10.2363686695       -3.2130789878        3.1225426723
 H       -11.6156870911       -4.2187418431        3.3765807638
 H       -11.1788046745       -3.0769952535        4.4620289887
 H       -14.2520948634       -1.4607874217        3.5058234225
 H       -12.8948120647       -1.1296584054        4.6731809394
 H       -13.6604983870       -2.8111988250        4.4034490659
 H       -14.1666891487        3.9422435596       -1.2241463342
 H       -14.4935408873        2.6071258581       -0.1938548769
 H       -14.0956395489        2.2848925972       -1.9034020314
 H       -11.8398832911        3.0553898817       -2.7464908046
 H       -10.4556467503        3.2718065625       -1.5561847774
 H       -11.5324310958        4.5395584814       -1.8648070726
 H        -9.2218632639        3.2673743463        4.4820127935
 H        -9.4330810098        4.9753243426        4.6435206162
 H        -7.8970466927        4.3229900050        5.1306107731
 H        -6.4474932496        5.5592283621        2.5229009562
 H        -7.6506205777        6.4872707694        3.3983738555
 H        -7.7969950733        6.1687341362        1.7723116829
 H        -5.4614175321        0.5358092251       -3.4566420431
 H        -6.9812140022        1.2609784053       -2.6720206554
 H        -6.3631289979       -0.2522682106       -2.0582704097
 H        -3.6469718424        0.5584983475       -2.2783529267
 H        -4.0099156436       -0.3248333723       -0.8288798472
 H        -3.1851732677        1.2517460897       -0.7137020272
 H        -6.2742470086        9.1472254546       -3.3841962621
 H        -6.2450335601        7.4132935424       -4.0097660624
 H        -5.0547821446        7.9719004219       -2.6877076488
 H        -7.6679027626        7.9661385342       -0.0237870649
 H        -7.2429683129        9.5173918420       -0.8117123044
 H        -5.9193258676        8.3700087342       -0.2344999742
 H       -12.3594569573       11.0399766420       -0.4797438002
 H       -13.5070399309       11.2156755577       -1.8730232595
 H       -11.8567560303       10.8865689890       -2.1389104940
 H       -13.7475549217        7.8254065230        0.0753788580
 H       -14.0534494162        9.5476550776        0.3744863862
 H       -12.4111990639        8.8853606148        0.7051202432
 Na       -8.8661925516        0.8383969996        1.5013066771
