117

 C       -15.1444028556        8.9218978420       -2.5901191262
 C       -13.6410065472        8.5593085908       -2.5443737669
 O       -13.1774414314        7.8309100380       -3.4159941090
 C       -12.7340787603        9.0617171733       -1.3858895835
 C       -11.2989559201        8.4513873416       -1.5284558898
 O       -10.6903224247        8.0289960323       -0.5572286063
 C       -10.6358706990        8.5688407022       -2.8947878308
 C        -9.1668543092        8.8052131546       -2.8169877193
 C        -8.3185094293        7.4644267223       -2.8278119791
 O        -8.6487715906        6.4573163907       -3.4393419183
 C        -6.8989282658        7.4663945340       -2.1251135468
 C        -6.6756013869        6.0146961380       -1.6719925835
 O        -6.9327648948        5.5837863106       -0.6061903566
 C        -6.0443399046        5.1960331802       -2.7896981862
 C        -6.0958362735        3.6932007637       -2.6579799787
 C        -5.1150907830        3.0556621520       -1.7391726397
 O        -4.0749117779        3.5272916023       -1.3859223213
 C        -5.3113124735        1.4116426102       -1.2968644065
 C        -6.0297910694        1.4105330709        0.0521370906
 O        -7.1455357466        0.8993921686       -0.0139768305
 C        -5.3637634307        1.9928523917        1.3768073966
 C        -5.9960630330        3.3429981450        1.7685215524
 C        -7.2303296912        3.1690816289        2.6769076485
 O        -7.5241889106        2.0883413240        3.1472746838
 C        -8.1659266458        4.3868148060        2.9173881654
 C        -9.4577503959        4.2298634316        2.0101559291
 O        -9.5929037167        3.2273161368        1.3269966129
 C       -10.4303484210        5.3980746918        1.8155287039
 C       -11.1263649374        5.2106479062        0.5091497031
 C       -12.1717019279        4.0365611524        0.5518169217
 O       -12.9244354965        3.9139055217        1.4505541289
 C       -12.2490644145        2.9979231170       -0.6208296453
 C       -11.7859091389        1.6520045157        0.0320652090
 O       -10.6656628571        1.2957859150       -0.1662995996
 C       -12.7326492145        0.8441586173        0.9528874132
 C       -12.0424586491        0.4443527998        2.3479974940
 C       -11.4044469985       -0.9363042147        2.4122238829
 O       -10.2069866869       -0.9715180099        2.1351665992
 C       -12.1724562290       -2.2142616972        2.9235374859
 C       -12.8459616260       -2.7722833591        1.6021667481
 O       -13.8143247079       -2.2068995209        1.1125083323
 C       -11.9934464589       -3.7319997406        0.6886103967
 C       -11.2662771899       -3.2051960373        3.6027662578
 C       -13.3121555671       -1.7955210478        3.8225392510
 C       -13.7352164062        2.8758604937       -1.0507176730
 C       -11.3346189512        3.3409409760       -1.7855734325
 C        -8.7945785847        4.2063761837        4.3492867020
 C        -7.5160429411        5.7336308556        2.7193728710
 C        -6.1287335515        0.7327340477       -2.3532356635
 C        -3.8157472202        0.7798764659       -1.2691935045
 C        -5.9057887292        8.0269819566       -3.2565198559
 C        -6.8594958801        8.4168974292       -0.8804347722
 C       -12.6035011608       10.6178811364       -1.4679540766
 C       -13.4883149168        8.8608543544       -0.0057925420
 H       -15.4351901250        9.4068671323       -1.6738945047
 H       -15.7094550631        8.0110466087       -2.6835719186
 H       -15.3402939390        9.3295242160       -3.5167504123
 H       -11.0955104309        9.3091665773       -3.5697399892
 H       -10.7706763543        7.6056354857       -3.4577075597
 H        -8.8347134020        9.3640885627       -1.9323501051
 H        -8.8047037846        9.3099231157       -3.6749861408
 H        -4.9798163915        5.5404945790       -2.9603756607
 H        -6.4962902022        5.5788904958       -3.7034777130
 H        -5.8065672168        3.2988672934       -3.6097722709
 H        -7.1436072282        3.3754036070       -2.5558793570
 H        -4.2624226941        1.9383442983        1.1340575991
 H        -5.5348741690        1.3885274155        2.2459334922
 H        -6.2076716116        4.0441658837        0.9145866084
 H        -5.1854048530        3.6484729818        2.4127444034
 H        -9.9506173113        6.4072118803        2.0317243536
 H       -11.2075712490        5.3521475734        2.5744016642
 H       -10.4442421330        4.8786811752       -0.2948194479
 H       -11.7528831118        6.0945378541        0.2340727003
 H       -13.0649088484       -0.1161261014        0.5619691063
 H       -13.5969367649        1.3517676604        1.3383106645
 H       -12.7653537854        0.5769078696        3.1475681095
 H       -11.3551822088        1.2903327372        2.5194293675
 H       -11.0107300321       -3.3826233350        0.7447674191
 H       -12.3238232081       -3.8012933371       -0.3167657201
 H       -11.9566484357       -4.8313431110        1.0219139424
 H       -10.3695401240       -3.4515592771        3.0960837166
 H       -11.7730328009       -4.1521372045        3.8190988731
 H       -10.8926551424       -2.8547481577        4.5087264947
 H       -14.1648195236       -1.5692371082        3.1626168758
 H       -13.1058046415       -0.9501722246        4.4929355288
 H       -13.7290159808       -2.6663295819        4.4217878063
 H       -14.0595778411        3.8337490469       -1.5283153173
 H       -14.4518832626        2.7568513353       -0.2205150731
 H       -13.9204537846        2.0687501173       -1.7043553368
 H       -11.5783059787        2.7218194286       -2.5985446188
 H       -10.2981693075        3.2493204569       -1.4618642328
 H       -11.4577067177        4.3873651215       -2.0610937036
 H        -9.3051363078        3.2372901318        4.4640310932
 H        -9.5895846702        4.9842599273        4.4717844103
 H        -8.0156049034        4.3726130731        5.0760818080
 H        -6.4850446705        5.6577840559        2.5762678131
 H        -7.7803947078        6.5276277302        3.5299507891
 H        -7.9238562688        6.1943564012        1.8490920596
 H        -5.6333087899        0.8122776060       -3.3434335322
 H        -7.1118121479        1.1636199120       -2.4142915985
 H        -6.2532117179       -0.3220423538       -2.1049940865
 H        -3.6642908481        0.0996369124       -2.1121904068
 H        -3.7368354253        0.1405576675       -0.3820429828
 H        -3.0186345746        1.5900366674       -1.0797686466
 H        -6.1899130873        9.1268602108       -3.3884392438
 H        -6.2252890468        7.5258949780       -4.2080120393
 H        -4.8915782057        7.9353796751       -3.0154310845
 H        -7.8627858826        8.3681056988       -0.4013715866
 H        -6.7056250566        9.4497280167       -1.1261626939
 H        -6.0573911427        8.0960700138       -0.1864025238
 H       -12.1157758630       11.1105469841       -0.6483153591
 H       -13.5021663029       11.1175557551       -1.7213571655
 H       -12.0304956380       10.7489195502       -2.3934560502
 H       -14.1000185533        7.9623200033       -0.0207083386
 H       -14.1459267859        9.7181344811        0.1826656580
 H       -12.6841877207        8.8134129726        0.7503269748
 Na       -8.9082626867        0.7719293491        1.4568616139
