117

 C       -15.2078226612        8.9479304468       -2.4714812264
 C       -13.7139344763        8.5927602570       -2.5303926117
 O       -13.2144660419        7.9448823158       -3.4068404931
 C       -12.7660443434        9.1141869470       -1.4087645370
 C       -11.2763493028        8.4444086393       -1.4457066088
 O       -10.6761738619        7.9595992379       -0.5408501468
 C       -10.5874922550        8.4237460277       -2.8546429545
 C        -9.0910371751        8.6973832900       -2.8738808671
 C        -8.2622450063        7.4687200564       -2.8343079446
 O        -8.7546718082        6.4467125728       -3.3118052559
 C        -6.8900273233        7.4844855683       -2.2215888985
 C        -6.5690907574        6.0315061957       -1.8467091335
 O        -6.9012320990        5.5902739764       -0.7220922791
 C        -5.9353637242        5.0907783927       -3.0014577797
 C        -6.1129423776        3.5621482006       -2.7251775349
 C        -4.9953209388        2.9337521285       -1.7606130330
 O        -4.0909896149        3.6038305663       -1.3098270424
 C        -5.3166651886        1.4626504031       -1.3525065682
 C        -6.0260803612        1.4301088341        0.0457810148
 O        -7.1267888009        0.8680027964        0.1991928411
 C        -5.4403732404        2.0142762646        1.3014099223
 C        -6.0662043175        3.3771548075        1.6647139887
 C        -7.2841578633        3.2301922338        2.6561847114
 O        -7.4112294992        2.1345114008        3.1978750108
 C        -8.2263472531        4.4286101583        2.9305112564
 C        -9.4210365230        4.2570708171        1.9482051293
 O        -9.6878228172        3.2522942479        1.2823250539
 C       -10.4761443496        5.3774793647        1.8943176937
 C       -11.1407215694        5.2404851947        0.5262686600
 C       -12.1227325522        4.0485780008        0.5547679963
 O       -12.8290193033        3.8859330036        1.5185568336
 C       -12.1754796546        2.9411182515       -0.6228664366
 C       -11.8098220416        1.6354936028        0.0828736095
 O       -10.6872595564        1.1199264396       -0.1226513383
 C       -12.7997632601        1.0469011284        1.0626641696
 C       -12.1548411176        0.4695721284        2.3477489049
 C       -11.3987840228       -0.9400859726        2.4014044292
 O       -10.2587221930       -1.1186807448        2.1196122951
 C       -12.2231761904       -2.1577739381        2.9183252008
 C       -12.7691573923       -2.6407898593        1.5677158995
 O       -13.8343701797       -2.1908748185        1.1823450715
 C       -12.0133245307       -3.7030982879        0.7232543802
 C       -11.2415977463       -3.1255082193        3.7145867239
 C       -13.4244572870       -1.7494145950        3.8096882583
 C       -13.6760927234        2.8842149582       -1.1197612644
 C       -11.2096020519        3.1382288174       -1.8679956891
 C        -8.8288758532        4.2548830882        4.3865149039
 C        -7.5103495652        5.7977569058        2.8150198217
 C        -6.2271987888        0.6934956159       -2.3054009689
 C        -3.8420735261        0.8817534428       -1.1845934242
 C        -5.7422836773        8.0028810614       -3.2565538087
 C        -6.7925651517        8.4236527283       -1.0125616468
 C       -12.5069352843       10.6850836714       -1.6235298565
 C       -13.5802157942        8.7732792654       -0.0681944932
 H       -15.3323305318        9.6270205320       -1.6489611647
 H       -15.7778232639        8.1093209282       -2.2174204923
 H       -15.5373648972        9.1596495441       -3.4483729692
 H       -11.0142508335        9.1134165104       -3.6932975479
 H       -10.7714486109        7.3654181970       -3.2781730863
 H        -8.7744729630        9.2383743650       -2.0305515820
 H        -8.8028328420        9.2443655147       -3.7059562299
 H        -4.8982195367        5.2950940807       -3.1983171943
 H        -6.3778326664        5.4279265434       -3.9103739588
 H        -6.1401583795        3.0518496175       -3.7128396347
 H        -7.1220389318        3.4041207537       -2.3150575518
 H        -4.3887967706        1.9864093588        1.0939781613
 H        -5.6264426989        1.3737444385        2.2610715601
 H        -6.4217488046        3.8642983559        0.7766579681
 H        -5.1388189584        3.8181796108        2.0762887887
 H       -10.0387610795        6.3956295530        2.0615021721
 H       -11.2034187485        5.2792942599        2.7879250119
 H       -10.4177342922        5.0455516338       -0.2781356927
 H       -11.8244106246        6.0538064488        0.3230888987
 H       -13.3448519621        0.2171398693        0.6568417787
 H       -13.5310632917        1.7509503947        1.5012670494
 H       -12.8549755147        0.5741004281        3.2169081564
 H       -11.4628746475        1.2825465285        2.5358793973
 H       -10.9501873060       -3.4543326138        0.6648728487
 H       -12.4130767281       -3.9462677504       -0.2603236257
 H       -12.0606378553       -4.6282843686        1.2431376657
 H       -10.5569270631       -3.6781310994        3.0721365438
 H       -11.7739902674       -3.9173860237        4.2124757441
 H       -10.4757797751       -2.6593914325        4.4207916663
 H       -14.2335303886       -1.2927892696        3.2404700162
 H       -13.1062209917       -1.1020556906        4.6439351275
 H       -13.8562929404       -2.5965017334        4.2697475480
 H       -13.8728900980        3.6066459383       -1.8942919595
 H       -14.4558948580        2.9937958223       -0.4400310317
 H       -13.8447301621        1.8917730000       -1.5627425617
 H       -11.2899184346        2.2134570702       -2.4287567983
 H       -10.1992487483        3.3186418136       -1.5747991474
 H       -11.5290446254        3.9719902025       -2.4961927834
 H        -9.2578026828        3.2488658208        4.5758936990
 H        -9.6654119402        4.9864047731        4.5482706137
 H        -7.9592781080        4.4657638450        5.0425970099
 H        -6.4377633522        5.7572700269        3.1930021781
 H        -8.0896902860        6.5283518453        3.3879196607
 H        -7.5781975207        6.2460265865        1.7714274218
 H        -6.0017329033        0.9042481574       -3.2931119184
 H        -7.2576704130        0.9201493459       -2.1405945637
 H        -6.0491950800       -0.3324671019       -2.1307695469
 H        -3.6599068350       -0.0747925754       -1.7118721427
 H        -3.7830142896        0.6771700484       -0.1499244487
 H        -3.0186656861        1.6818549423       -1.2689074187
 H        -5.9038804863        9.0243951445       -3.4543958305
 H        -6.0000641292        7.5393886956       -4.1873621271
 H        -4.7532439201        7.7884519628       -2.8997179690
 H        -7.7310930432        8.6699995823       -0.5752703116
 H        -6.3338709926        9.3516878881       -1.2440159131
 H        -6.0818441058        7.9545302274       -0.3379861011
 H       -11.7137782491       11.0834616123       -1.0198994006
 H       -13.3900072318       11.2658732055       -1.3938498720
 H       -12.3570532822       10.8757362638       -2.6708043443
 H       -13.9985266155        7.7473309070       -0.2315406015
 H       -14.3919429776        9.4282497011        0.1633979841
 H       -12.8104612843        8.6650165305        0.7100326827
 Na       -8.9626896181        0.8094577021        1.4089705981
