117

 C       -15.0778251500        9.0960476869       -2.2620214222
 C       -13.5976734258        8.6461856839       -2.5538125448
 O       -13.3725298397        7.8605255816       -3.4461747849
 C       -12.5261191398        9.3075538428       -1.5633890594
 C       -11.2096363489        8.5733450833       -1.7513586704
 O       -10.7570871248        7.8925823558       -0.8532565619
 C       -10.5038226226        8.6634180892       -3.0987497366
 C        -8.9911485206        8.5954818319       -2.9602387083
 C        -8.3879675632        7.2769086039       -2.7422581274
 O        -8.9948069203        6.2424386548       -3.0253828432
 C        -6.8204300019        7.1773311500       -2.3986396466
 C        -6.4204081312        5.6894609756       -2.0597053732
 O        -6.4596983459        5.3369707719       -0.9212512229
 C        -5.9495030625        4.7357468207       -3.3748368447
 C        -5.9721379397        3.1967073739       -3.0607639220
 C        -5.1195930826        2.8432112321       -1.8407588074
 O        -4.3475692564        3.6559479885       -1.4198784590
 C        -5.3005892144        1.3672515542       -1.2162423575
 C        -6.0912855060        1.5281514006        0.0994206480
 O        -7.2449166205        1.1081466802        0.1815331251
 C        -5.4254321416        2.2039411885        1.3641603906
 C        -6.1585236923        3.5873124155        1.7291301440
 C        -7.3130885690        3.3679030004        2.5964207953
 O        -7.5970294246        2.2486853295        3.0254736610
 C        -8.3790283702        4.5131297498        2.8517317622
 C        -9.5908609794        4.3848444710        1.9093817528
 O       -10.0263345596        3.2408671628        1.7386853231
 C       -10.3010981318        5.6138600955        1.2523235859
 C       -11.1167643783        5.2654966449        0.0266959498
 C       -11.9617184177        3.9307010302        0.3473800259
 O       -12.6568453332        3.8905165000        1.3198440704
 C       -12.0124357282        2.7101325730       -0.5769768045
 C       -11.9154699621        1.3362842667        0.3475779799
 O       -10.9369199087        0.6622478959        0.2250669457
 C       -12.9745057602        0.9800556977        1.3566625033
 C       -12.1653609448        0.7339805994        2.7354386815
 C       -11.4694983824       -0.6095720479        2.7874679297
 O       -10.2159067840       -0.7408636123        2.8436658057
 C       -12.2944726178       -1.8667353666        3.0603860080
 C       -12.7883730944       -2.3948205628        1.6479372918
 O       -13.7694469338       -1.9493070264        1.1136465722
 C       -12.0583812456       -3.5207073071        0.8249805478
 C       -11.4413986386       -2.9153944671        3.8347783260
 C       -13.5789234877       -1.5406345778        3.9630379239
 C       -13.4483181854        2.7399908542       -1.2071576334
 C       -10.8353750772        2.6166995012       -1.5910304756
 C        -9.0294906470        4.1512504073        4.2705555256
 C        -7.7485208033        5.8999355690        2.9878204231
 C        -6.0254861695        0.3356140007       -2.1433238894
 C        -3.8567297643        0.8739305856       -0.9458028385
 C        -6.1734787750        7.5627483801       -3.7642909864
 C        -6.3545348415        8.0954407624       -1.2389745070
 C       -12.4591544360       10.8545848350       -1.7307335274
 C       -12.9682900041        9.0368504994       -0.0840913403
 H       -15.5111250029        9.5049209264       -3.1984496376
 H       -15.1015043073        9.8528470815       -1.4759176608
 H       -15.6289979858        8.2360248170       -2.0632336114
 H       -10.7363459453        9.6076563261       -3.5977852447
 H       -10.8742711366        7.8910072492       -3.7846797270
 H        -8.5993668433        9.2417991509       -2.1430468716
 H        -8.4330138058        8.9751693653       -3.8187662479
 H        -4.9399166387        5.0195486921       -3.5682254987
 H        -6.4774221204        4.9871765624       -4.2537597527
 H        -5.5932145322        2.6584584886       -3.9397174427
 H        -7.0241222775        2.9308380741       -2.8096954971
 H        -4.3005145797        2.3669755033        1.1685441391
 H        -5.5199850690        1.5966590742        2.2260995039
 H        -6.3195836029        4.2607250950        0.8484968640
 H        -5.2882179071        4.0882763330        2.0548743565
 H        -9.5703238940        6.4396037222        1.0256560116
 H       -10.9812847488        6.0508289516        1.9655101062
 H       -10.6788895985        5.0837062728       -0.9455188362
 H       -11.7615879177        6.1212997237       -0.1203330527
 H       -13.5458151946        0.1163942575        0.9282722238
 H       -13.6899582520        1.7619374518        1.5377206531
 H       -12.8314964108        0.6332979315        3.5645773903
 H       -11.4377908251        1.5750214242        2.8629616470
 H       -11.0121422158       -3.5194328021        0.9305496434
 H       -12.2580697778       -3.4243029794       -0.2223806428
 H       -12.3713614413       -4.5712946648        1.1851873412
 H       -10.3183796476       -2.9180909582        3.7561108913
 H       -11.6742549311       -4.0118962147        3.5566815542
 H       -11.7134218844       -2.7919560301        4.8815211016
 H       -14.2464511347       -0.9296001267        3.4132066876
 H       -13.3758383739       -1.0410794583        4.8821233593
 H       -14.0866943758       -2.4922215864        4.2252285166
 H       -13.6976905379        3.7143891696       -1.6213765713
 H       -14.2080137626        2.5608153358       -0.4487002897
 H       -13.6587904548        2.0995435308       -1.9713881092
 H       -10.6501578204        1.6344705974       -1.9385637153
 H        -9.8963229653        2.9285388074       -1.1188369435
 H       -11.1448093742        3.1860931281       -2.4558484778
 H        -9.4365046895        3.1077732813        4.3125131989
 H        -9.8703728135        4.9014919385        4.4207947789
 H        -8.3161998052        4.1934166684        5.1019389763
 H        -6.6903980914        5.8380942752        3.1533383274
 H        -8.0849595063        6.5708434105        3.8869566055
 H        -7.8755871391        6.3703893606        2.0102951522
 H        -5.7712446311        0.3933500537       -3.1795832613
 H        -7.0356530302        0.5348734209       -2.0108853513
 H        -5.8950812565       -0.6376966717       -1.7431212979
 H        -3.7067147993        0.7788083843        0.0901247598
 H        -3.0924949238        1.5286421616       -1.3112218913
 H        -3.8290387862       -0.2162228588       -1.2997858653
 H        -6.1201430018        8.6799469716       -3.9054373887
 H        -6.6958153164        7.1335022294       -4.6228148408
 H        -5.2061233301        7.2101418488       -3.8471081184
 H        -6.4908983631        7.5902026261       -0.2756153724
 H        -6.8938275018        9.0125037251       -1.2720745663
 H        -5.2941933724        8.3172251838       -1.3390840281
 H       -12.0900571194       11.3238160230       -0.8284935773
 H       -13.4289174491       11.2684454130       -1.8813026987
 H       -11.7496824520       11.1442336138       -2.5231421357
 H       -13.3801008874        8.0642585373        0.0873737968
 H       -13.7714135680        9.7656638958        0.0149096631
 H       -12.1321200536        9.1048611358        0.6242653153
 Na       -9.0349748280        1.0306925824        1.6253538497
