117

 C       -15.0337923594        9.0695493284       -2.4106566943
 C       -13.5472787128        8.7353504219       -2.4473185474
 O       -13.1639019430        7.8932655888       -3.2556266634
 C       -12.4985182564        9.3199164709       -1.4982290312
 C       -11.0950429496        8.6750439660       -1.7695844085
 O       -10.6197633935        7.9610270554       -0.8811850904
 C       -10.4728229791        8.7359240905       -3.1859618475
 C        -8.9548910895        8.6395309278       -3.1521032324
 C        -8.3929636463        7.1854466255       -2.9145123810
 O        -9.1636954386        6.2959355234       -2.7021109782
 C        -6.8854638880        7.0503972008       -2.6895559198
 C        -6.6299077553        5.5160110742       -2.2695937554
 O        -6.6091912873        5.1638211537       -1.0940675488
 C        -6.0661129863        4.6205984276       -3.3790595243
 C        -6.0986766943        3.1893564709       -2.8665479546
 C        -5.0197343763        2.8143539846       -1.8450444262
 O        -4.0912458654        3.5073441503       -1.4990209486
 C        -5.2390761729        1.3248993664       -1.1451212870
 C        -6.1531829555        1.6070396490        0.1595688227
 O        -7.3422858342        1.4290505371        0.1109459688
 C        -5.4413726573        2.3165665715        1.3274710338
 C        -6.1605980586        3.5945407865        1.8661271682
 C        -7.3909679442        3.2967349193        2.6887438098
 O        -7.6330745013        2.1726658905        3.0814569352
 C        -8.4284160771        4.4588222946        2.9320750033
 C        -9.5765281097        4.2789171102        1.8630062186
 O        -9.9564662512        3.1824316722        1.5556777387
 C       -10.2293836085        5.5070070106        1.1566174299
 C       -11.0005771946        5.0205724001       -0.0619366943
 C       -12.0135558701        3.9124397560        0.3409115942
 O       -12.8165425234        4.0373867340        1.2596161375
 C       -12.0662134655        2.5809475609       -0.6187207706
 C       -11.8190783517        1.4034936441        0.3660686605
 O       -10.7801817900        0.7175848230        0.2430192706
 C       -12.8039881471        1.1705249270        1.5655022373
 C       -12.2856660687        0.8885447784        2.9157720315
 C       -11.5583036048       -0.5631859082        3.0517695742
 O       -10.3759328452       -0.5609296098        3.0347742222
 C       -12.3438025157       -1.9270448578        3.1845452568
 C       -12.7146800507       -2.2768624291        1.6753027570
 O       -13.6997427488       -1.7226353537        1.1705947213
 C       -11.8737443381       -3.3046444533        1.0740273677
 C       -11.4957643310       -3.0589460672        3.8760800146
 C       -13.6265176260       -1.7589177851        3.9382344196
 C       -13.3987390169        2.6587716551       -1.4148157856
 C       -10.9761109482        2.5313874396       -1.7073368975
 C        -9.0254314993        4.2581299112        4.3109382982
 C        -7.7557388213        5.7865251664        2.7765775125
 C        -5.9888269558        0.4820633603       -2.1759323965
 C        -3.7959180179        0.7623824800       -0.8134284302
 C        -6.0988678729        7.4819176323       -3.8839208436
 C        -6.4254087801        7.9340448249       -1.4691155371
 C       -12.2843291611       10.8240286384       -1.8584153753
 C       -13.1049008568        9.2109675055       -0.0276142820
 H       -15.4681939848        8.5751719901       -3.2729340605
 H       -15.1658240151       10.1667250894       -2.3431791039
 H       -15.4914434396        8.5201037564       -1.4919500082
 H       -10.7344739785        9.6340889609       -3.6828979681
 H       -10.9009871716        7.9267992274       -3.7644200738
 H        -8.5632523574        9.2484563246       -2.3242316021
 H        -8.4305217563        9.0978697413       -4.0468072374
 H        -5.0431938822        4.9900208641       -3.6916289730
 H        -6.7576094152        4.7870169664       -4.2718229315
 H        -5.9972431241        2.4983327454       -3.7151071850
 H        -7.0486262539        3.1115400740       -2.3761556529
 H        -4.4983084237        2.5582037101        0.9076407152
 H        -5.2784077711        1.7208901029        2.2447290810
 H        -6.3983455128        4.2639366075        1.0689201794
 H        -5.2777360146        4.1934509732        2.2190937657
 H        -9.4957699111        6.1859658249        0.8411868461
 H       -10.8057644468        5.9865108003        1.9711605162
 H       -10.3745654555        4.6126297038       -0.8492766909
 H       -11.6166992392        5.7441229559       -0.6276801434
 H       -13.5248284119        0.4171741023        1.2780873778
 H       -13.4553188970        2.0686354577        1.6752644710
 H       -13.1338747122        0.9104207648        3.6329174186
 H       -11.5348242890        1.5871005331        3.2536586890
 H       -10.7893802381       -3.2994887678        1.3775940508
 H       -11.8596182811       -3.2531105694       -0.0282996258
 H       -12.2527327415       -4.2352355192        1.3785000908
 H       -10.7556829067       -3.3613345408        3.1707457793
 H       -12.0658754222       -3.9415297733        4.0177192528
 H       -11.0043924509       -2.8790770791        4.8346273645
 H       -14.3377916793       -1.0864877702        3.3905057935
 H       -13.4943571368       -1.3460430905        4.9704408253
 H       -14.1641762437       -2.7027568460        3.9037561691
 H       -13.3137924524        3.2038779265       -2.3435693795
 H       -14.2840361935        3.0686991325       -0.9181465423
 H       -13.7188385692        1.6235314619       -1.7730880144
 H       -11.2036169969        1.6002389570       -2.3055215389
 H       -10.0008344844        2.3933366085       -1.2403949608
 H       -11.0403951235        3.3462736764       -2.4340828868
 H        -9.4225559967        3.2659624537        4.3455702822
 H        -9.7675766363        4.9823133637        4.5021416917
 H        -8.2947641094        4.3175883189        5.1319891510
 H        -7.1547152522        6.0594801360        3.6393345167
 H        -8.5298736839        6.4846593779        2.7118597820
 H        -7.1398232553        5.8563524908        1.9172333160
 H        -5.4968871644        0.4995245528       -3.1716087449
 H        -7.0819976966        0.7636173637       -2.1920903035
 H        -6.0625214061       -0.5618369868       -1.7882904764
 H        -3.4853013117        1.0079543359        0.2295032178
 H        -3.0366078469        1.3469500442       -1.3713855767
 H        -3.7417061527       -0.2322907003       -0.9247774771
 H        -6.1622354865        8.5393418364       -4.1073633462
 H        -6.2599140172        6.8056717922       -4.7422525424
 H        -4.9479958685        7.3472834464       -3.7313963622
 H        -7.1510617702        7.8125315376       -0.6842129435
 H        -6.2605638408        9.0047432845       -1.7146025703
 H        -5.5687022621        7.4639473926       -1.0099419824
 H       -11.3977860532       11.2938936790       -1.4003336625
 H       -13.1899754845       11.4029004607       -1.5530742699
 H       -12.0725963922       10.9223099816       -2.9091044242
 H       -13.4806144819        8.1664020200        0.0488477554
 H       -13.9462491035        9.9033153277        0.1264265762
 H       -12.2995468811        9.3201609702        0.7154706894
 Na       -9.1796591446        1.0282018496        1.7551427493
