117

 C       -14.9481515413        9.1930538300       -2.4692752981
 C       -13.4745479797        8.6996088193       -2.5957575067
 O       -13.2014249221        7.7842741733       -3.2974614157
 C       -12.4054636909        9.3689878309       -1.5720003331
 C       -11.0135723593        8.7566046962       -1.6425950703
 O       -10.4832172501        8.2232437967       -0.7138011645
 C       -10.4413067861        8.7347605762       -3.1106347086
 C        -8.9455581146        8.5358226239       -3.2903161856
 C        -8.4246551741        7.1791895114       -2.8690882254
 O        -9.1785009662        6.2482583791       -2.6192300147
 C        -6.8855824851        6.9964480481       -2.6978034426
 C        -6.6340688366        5.5402627106       -2.3115976840
 O        -7.0489413063        5.1393313672       -1.2316214310
 C        -6.1533903163        4.5440639414       -3.3493664603
 C        -6.1692405840        3.0786270316       -2.8772826430
 C        -5.0211917721        2.6431726178       -1.9171661974
 O        -4.0624639115        3.3404215895       -1.6785380744
 C        -5.1987666684        1.2928622025       -1.0936587530
 C        -6.0750272692        1.6596477355        0.1294853457
 O        -7.3041943614        1.5348849347        0.1064827051
 C        -5.3995434937        2.3787890752        1.3378647280
 C        -6.1752194147        3.5863194728        1.8467376429
 C        -7.3737053830        3.3075616951        2.7102595310
 O        -7.6005814876        2.2170245103        3.2036444292
 C        -8.4018741280        4.4365899843        2.9132940502
 C        -9.5136440447        4.2265784093        1.7602564195
 O        -9.8881918433        3.0901816424        1.5304620988
 C       -10.2095992346        5.4501772432        1.0802673680
 C       -10.8846214023        5.0907381165       -0.1884753359
 C       -11.9841571915        3.9564137127        0.0831294447
 O       -12.8655217676        4.2472630288        0.8441132394
 C       -12.0601701725        2.5426090617       -0.6459616816
 C       -11.8755146141        1.4119039914        0.4476911708
 O       -10.9638660586        0.6445650066        0.3576492266
 C       -12.9322760548        1.2509977420        1.5240832033
 C       -12.3418768291        0.8151894992        2.9215580328
 C       -11.6613664257       -0.5034192074        3.0604951752
 O       -10.4038025694       -0.5847232672        3.0924885200
 C       -12.3856555855       -1.8611970267        3.2792672566
 C       -12.6823535251       -2.2075210419        1.7230930352
 O       -13.5539473894       -1.6192135352        1.1523525703
 C       -11.7493615680       -3.1447843762        0.9205740568
 C       -11.4245708495       -2.8103007192        4.0866653616
 C       -13.7524969699       -1.7436486607        4.0192588488
 C       -13.5223095234        2.2728360464       -1.0584340898
 C       -11.0104762964        2.4217909479       -1.7984772970
 C        -9.1108290996        4.3669630912        4.2081512783
 C        -7.7659342804        5.8549142955        2.8601625845
 C        -6.0313943112        0.2231878962       -1.8810626238
 C        -3.8550220402        0.6960042176       -0.6545302464
 C        -6.1021019419        7.5012077674       -4.0414545839
 C        -6.4362934750        7.9483129043       -1.4914148226
 C       -12.4233417097       10.8752181091       -1.9064559075
 C       -12.7753229469        9.2981738041       -0.0861675477
 H       -15.5556409868        8.3252442431       -2.7536955917
 H       -15.0060954656       10.0653622538       -3.0849094596
 H       -15.1945738107        9.4509818209       -1.5026104499
 H       -10.6950292406        9.6845056086       -3.7207464977
 H       -10.9889186485        7.8901180277       -3.6334285538
 H        -8.4044305172        9.2388886783       -2.6650640161
 H        -8.6543846274        8.6655031042       -4.2791067816
 H        -5.1510525976        4.8216069766       -3.6365873964
 H        -6.7821076292        4.6555312658       -4.1994421235
 H        -6.2299805895        2.4219876126       -3.7548130639
 H        -7.1103267417        3.0445730002       -2.2577103595
 H        -4.3735451956        2.5296503849        0.9537996341
 H        -5.3729123694        1.5958776339        2.1345722111
 H        -6.2362462921        4.2532736539        0.9492267790
 H        -5.5819677673        4.3052959265        2.3855432746
 H        -9.4055895097        6.2488658734        0.8594912373
 H       -10.8802224566        5.8383825040        1.8595908734
 H       -10.2381075892        4.8203738631       -1.0213216981
 H       -11.4967964402        5.8915438472       -0.5745477271
 H       -13.6342776177        0.4500686174        1.1948834547
 H       -13.5689455034        2.1192298898        1.5968670262
 H       -13.0927399246        0.7810274009        3.7107360248
 H       -11.5068480335        1.4304311583        3.3683966667
 H       -10.9275462565       -2.6047972064        0.5444254049
 H       -12.2664304627       -3.4850105050        0.0395499436
 H       -11.3146400846       -4.0019746155        1.4787356392
 H       -10.4135929721       -2.8693869966        3.6965855370
 H       -11.8668205441       -3.8008293889        4.2413626092
 H       -11.4154445005       -2.4788963280        5.1244416054
 H       -14.4019227000       -1.1012993574        3.4415872853
 H       -13.6285237958       -1.2658020424        4.9702046965
 H       -14.3468111255       -2.6640401976        4.0050933215
 H       -14.0064398499        2.9067319167       -1.8318042858
 H       -14.2096827321        2.3658901908       -0.2277888931
 H       -13.6227961112        1.2656035563       -1.3997666517
 H       -11.3443431893        1.7631715032       -2.5585636732
 H       -10.0894206469        2.0481964372       -1.3346704621
 H       -10.8112905011        3.3972852408       -2.2627734038
 H        -9.6271175302        3.4420990172        4.4671155395
 H        -9.7840866136        5.2451220631        4.3405625654
 H        -8.3824357105        4.5924664271        4.9587833513
 H        -6.8900007509        5.8014943748        3.5445792414
 H        -8.5349718664        6.5470667096        3.2551534731
 H        -7.3242422552        6.2134802755        1.8719010262
 H        -5.3031573740       -0.1175119493       -2.6105676516
 H        -6.8998827489        0.6103717946       -2.3920171445
 H        -6.3745258432       -0.6187950320       -1.2813506732
 H        -3.2670114354        1.2989010455        0.0162410911
 H        -3.1942001706        0.5558202875       -1.5077738794
 H        -4.1439924640       -0.3361517011       -0.1739293670
 H        -6.3914503464        8.5315802841       -4.2039028389
 H        -6.3002966863        6.8467005952       -4.8644044857
 H        -5.0847549532        7.5785416983       -4.0506875760
 H        -7.1984641136        8.1506843909       -0.7110123442
 H        -6.1548437010        8.8377341899       -2.0092143515
 H        -5.6141257643        7.5321866488       -0.8789831147
 H       -11.4102498666       11.2352069571       -1.8239281476
 H       -13.0845660873       11.4459438124       -1.2994739115
 H       -12.6002191039       11.0436390836       -2.9807521916
 H       -12.6427202792        8.2629017668        0.2175624119
 H       -13.7892549878        9.6320919913        0.1411544491
 H       -12.0957645294       10.0136664183        0.4231537996
 Na       -9.0116295240        0.9150414051        1.9312542122
