117

 C       -14.8320838948        9.2508277060       -2.4909334751
 C       -13.4569853094        8.6387448279       -2.4110159262
 O       -13.2278765661        7.6326014169       -3.0152856022
 C       -12.3929891660        9.5135666440       -1.5853823726
 C       -10.9743479605        8.9710161477       -1.8526134868
 O       -10.1777321179        8.8595506530       -0.9599521958
 C       -10.5414682702        8.6988401942       -3.3314883109
 C        -8.9939070028        8.5780149498       -3.4004770402
 C        -8.5610198785        7.1823676180       -2.9641994019
 O        -9.2985971608        6.2173314881       -2.8072452711
 C        -6.9944222138        6.8645158212       -2.6154822607
 C        -6.7890565973        5.3728008478       -2.1761759618
 O        -7.1165090742        4.9721260393       -1.0811374933
 C        -6.0853773179        4.4335614248       -3.2233037677
 C        -6.3279288590        2.9369542169       -2.7852764279
 C        -5.1519926752        2.4298626649       -1.9360884574
 O        -4.0708167466        2.9652431481       -1.9561169426
 C        -5.3326164037        1.1401454668       -0.9255309503
 C        -6.1636123740        1.5949584790        0.3405678661
 O        -7.3385479108        1.2445042475        0.3690618638
 C        -5.4000335832        2.4639374462        1.3889019011
 C        -6.1539794524        3.7320370112        1.7768452416
 C        -7.3031978607        3.4980692676        2.6937395126
 O        -7.4087838853        2.4333244973        3.3116894173
 C        -8.4576145484        4.5596059638        2.7981969940
 C        -9.4619799353        4.2558907375        1.6987389921
 O        -9.8664458314        3.1093369101        1.5538692745
 C       -10.1225535922        5.3549582417        0.8614022588
 C       -10.7182490348        4.6830278882       -0.4234877113
 C       -12.0725969960        3.8824837149       -0.1531807035
 O       -12.9474275032        4.3098840097        0.5226254089
 C       -12.2356954385        2.4076032057       -0.6651976546
 C       -11.9021252445        1.4614390528        0.5554103467
 O       -10.8514559094        0.8506643039        0.4988441776
 C       -12.8636141356        1.4030113975        1.8594002567
 C       -12.2020654917        1.0971029411        3.2012966805
 C       -11.5162329251       -0.3427324296        3.1953163411
 O       -10.2852956610       -0.4730926007        3.0456068792
 C       -12.3662815451       -1.6438011338        3.2293124381
 C       -12.6379333255       -2.0926325876        1.7063052001
 O       -13.6584084729       -1.8915682077        1.1137852856
 C       -11.4890881773       -2.8812787106        1.0777549291
 C       -11.5857139839       -2.7324336709        3.9870569340
 C       -13.7462589153       -1.3901854039        3.8615218553
 C       -13.6964023789        2.2350419705       -1.1467625092
 C       -11.2214982390        1.9465145288       -1.7558448124
 C        -9.1841509822        4.2842988414        4.1255761613
 C        -7.9529191722        5.9937600843        2.8782487920
 C        -6.1298994416        0.0285486395       -1.6711631866
 C        -3.8528001941        0.6542283618       -0.6007286273
 C        -6.1573191890        7.0726139427       -3.9316203389
 C        -6.3235422049        7.7442507382       -1.4699203630
 C       -12.2627764073       11.0459733716       -1.9655375800
 C       -12.7150794892        9.3410776747       -0.1083264304
 H       -15.4315795783        8.4672921877       -1.9696265822
 H       -15.0583576833        9.5475265928       -3.5544177983
 H       -14.9186421847       10.1568810408       -1.9109165206
 H       -10.7451434073        9.5792701064       -3.9407523844
 H       -11.0829719427        7.8797174910       -3.7983567212
 H        -8.5751767836        9.2674774473       -2.6659260741
 H        -8.6042355280        8.7845093731       -4.4255690691
 H        -4.9860791850        4.6035438687       -3.3262080712
 H        -6.6313814178        4.5767870110       -4.2194966815
 H        -6.4342730473        2.3117253644       -3.6891552637
 H        -7.2597657071        2.8150174829       -2.2304648006
 H        -4.3399158560        2.5318114511        0.9586077559
 H        -5.4135081839        1.8810280855        2.2823925817
 H        -6.4485946447        4.3509431917        0.8840223900
 H        -5.4389863781        4.4572991768        2.1473548488
 H        -9.4035199958        6.0810420140        0.4844300915
 H       -10.9242155771        5.8425978198        1.4166413749
 H       -10.0991124136        4.0636694638       -1.0683433319
 H       -10.9738644784        5.5557238410       -1.0321769971
 H       -13.7110698675        0.7466029222        1.5724223796
 H       -13.3940014644        2.3377502501        1.9677813223
 H       -12.8333144754        1.2215207799        4.0638134319
 H       -11.3513589673        1.7700827162        3.4217433954
 H       -11.3775693072       -2.7225584398        0.0353393250
 H       -11.8359401926       -3.9191263017        1.1321825367
 H       -10.4671667464       -2.8611071334        1.5996146418
 H       -10.5095695906       -2.7286294895        3.8218986309
 H       -12.0938690617       -3.6893954034        3.7629915935
 H       -11.7616943771       -2.6623228275        5.0288019345
 H       -14.4404175026       -0.8396324980        3.2331691768
 H       -13.5852861027       -0.8465488436        4.7890526057
 H       -14.2544975789       -2.3803427364        4.0782636853
 H       -13.9138281602        2.7949253783       -2.0811888066
 H       -14.4325563545        2.6665319036       -0.4163759089
 H       -13.9593617182        1.2225277454       -1.3087903528
 H       -11.2360277752        0.8710083695       -1.8794697135
 H       -10.2214922022        2.3405641849       -1.5323618982
 H       -11.4931093157        2.4607274750       -2.6860671580
 H        -9.5016854512        3.2409067845        4.1117312239
 H       -10.0924013619        4.8649022917        4.2670937008
 H        -8.5587623227        4.5035393307        4.9680549976
 H        -7.1501667099        6.1084582960        3.5180265803
 H        -8.7756566618        6.7073133061        3.0241305048
 H        -7.6082175014        6.2033761109        1.9096156737
 H        -5.7352903113       -0.2137643507       -2.6944327113
 H        -7.1538526688        0.3736207158       -1.7704025076
 H        -6.0156430751       -0.9237237435       -1.1161322945
 H        -3.1398110584        0.9668952804       -1.2830083852
 H        -3.8621263287       -0.4116289435       -0.4883822494
 H        -3.4918515838        1.0028707905        0.4552990139
 H        -5.9253327433        8.2074369859       -4.0779018746
 H        -6.5683540256        6.6819062506       -4.9218819088
 H        -5.1597622223        6.6749295005       -3.8466046204
 H        -6.3120406660        7.2475765574       -0.4821787951
 H        -6.7434751628        8.7472646942       -1.3775826623
 H        -5.2966059579        7.8634516923       -1.7621913686
 H       -11.6538631878       11.5440319473       -1.1995293840
 H       -13.2661154205       11.4578807982       -1.9628860599
 H       -11.8346267612       11.2768149564       -2.9613243953
 H       -12.7073677405        8.3164917856        0.1664051973
 H       -13.7017050374        9.7624929055        0.1383116904
 H       -12.1057138354       10.0534330075        0.4065867834
 Na       -8.8570488002        1.1104960841        1.9035010160
