117

 C       -14.6722392122        9.3084470444       -2.5655451682
 C       -13.2738037440        8.7097667222       -2.3133496482
 O       -12.9631807941        7.6012863078       -2.6877032367
 C       -12.2752293382        9.5807330000       -1.6400106789
 C       -10.8039250323        9.2439392022       -1.9078842667
 O        -9.9326496145        9.3110210602       -1.0842939463
 C       -10.4814024383        8.7102234658       -3.3341011702
 C        -9.0539256944        8.2810751636       -3.6094145664
 C        -8.6300802197        6.9754488704       -3.0418582604
 O        -9.3199630720        5.9650882623       -2.9650755502
 C        -7.1018778764        6.7406744404       -2.6687564442
 C        -7.0055229958        5.2538561347       -2.1822426740
 O        -7.2712198344        4.9678114264       -1.0125501084
 C        -6.5463708779        4.1314342699       -3.1957965721
 C        -6.5798838350        2.6960038893       -2.5431026883
 C        -5.2960969691        2.2431123460       -1.7889673336
 O        -4.1894507884        2.7094964564       -1.9617312090
 C        -5.3626359180        0.9609750024       -0.8037877979
 C        -6.0945643255        1.4804965088        0.4781649931
 O        -7.1501795949        0.9465447668        0.8003681438
 C        -5.3656163660        2.6272424865        1.2015517141
 C        -6.2481371960        3.8707214178        1.5585251836
 C        -7.3829325022        3.6867631363        2.5216395359
 O        -7.5066768986        2.6999105459        3.2279995213
 C        -8.5706625063        4.7425227511        2.6249796264
 C        -9.5720449814        4.3060638188        1.4891396842
 O       -10.1584026486        3.2701719552        1.6436531375
 C        -9.9277687664        5.1761325447        0.3032649969
 C       -10.5801913778        4.3018903113       -0.7544891431
 C       -11.8806280587        3.7036623705       -0.1707058334
 O       -12.6506063931        4.2991705075        0.5627134141
 C       -12.2407699616        2.2665696737       -0.6364003146
 C       -11.7024737188        1.3060347644        0.5347098362
 O       -10.7885372243        0.5379969320        0.3207447097
 C       -12.5180252115        1.4588215236        1.8792741679
 C       -11.9213008630        1.2434092967        3.2062147518
 C       -11.4438272202       -0.2468612749        3.2787550755
 O       -10.2125747921       -0.4669374556        3.2231490114
 C       -12.4368841929       -1.4113151065        3.2742294316
 C       -12.5274547637       -1.9132698410        1.7664385272
 O       -13.5535670005       -1.8660382007        1.1416930379
 C       -11.2662718661       -2.3502993456        0.9920495863
 C       -11.8358226242       -2.5672946016        4.1475960565
 C       -13.8818278441       -1.0491926835        3.7663895320
 C       -13.7997911158        2.2344629032       -0.7640201135
 C       -11.5648055756        1.9121697634       -1.9814493066
 C        -9.3400381428        4.5227372090        3.8831671389
 C        -8.0038379095        6.1468953922        2.4954647590
 C        -6.1408224953       -0.2233752126       -1.3987491461
 C        -3.9433514862        0.4953717487       -0.4269869180
 C        -5.9693725701        6.9610720231       -3.7992663158
 C        -6.6725447595        7.6456691560       -1.4973649878
 C       -12.3922216213       11.0730218105       -2.0827633471
 C       -12.5160693306        9.6157143599       -0.0309893604
 H       -15.2243610017        8.5673260377       -1.9487915149
 H       -14.9672838252        9.2714362109       -3.6211951772
 H       -14.7351098994       10.2796585232       -2.1676311327
 H       -10.7184011627        9.4374055474       -4.0488440071
 H       -11.0707865500        7.9039422695       -3.5972790150
 H        -8.2919633401        9.0440447549       -3.2472056669
 H        -8.9617123952        8.1048551935       -4.7429126869
 H        -5.5230157896        4.3096952665       -3.5568832341
 H        -7.3019460261        4.1716916268       -4.0326823262
 H        -6.7118087056        1.8838134572       -3.2730351543
 H        -7.4430273519        2.5674850314       -1.9118078190
 H        -4.4890717689        2.8715918212        0.5585360733
 H        -5.0541746278        2.0091686492        2.0355905199
 H        -6.6888460376        4.1625431288        0.5619560816
 H        -5.6356998130        4.7497913872        1.6635624314
 H        -8.9990857689        5.5827761697       -0.0521493346
 H       -10.6232985102        5.9017715920        0.6330725209
 H        -9.9244880613        3.5441305295       -1.2202991506
 H       -11.0274639601        4.8727440843       -1.5760364316
 H       -13.4254701504        0.8245731731        1.7740652187
 H       -12.9936490454        2.4370832739        1.9018348432
 H       -12.6470158423        1.4579516629        3.9446955563
 H       -11.0149737217        1.7857069867        3.4925065783
 H       -11.1494598118       -3.3985411532        1.1978186429
 H       -10.3341937378       -1.8375660104        1.3265578307
 H       -11.2778398538       -2.1570696329       -0.1028490507
 H       -10.9172892630       -3.0322277728        3.6730411935
 H       -12.6561445377       -3.3307247038        4.1951285871
 H       -11.4531882152       -2.1748965781        5.1093180758
 H       -14.2411341497       -0.4310350522        2.9949716354
 H       -13.9182498795       -0.5415682307        4.6890998041
 H       -14.5270062436       -1.9170304542        3.9017952377
 H       -14.0752422451        2.7467547083       -1.6970245680
 H       -14.3817805395        2.6593280094        0.0305300297
 H       -14.1230089918        1.2553974770       -0.9198802283
 H       -12.0598349915        1.0848710428       -2.4180345113
 H       -10.5289173524        1.5833182271       -1.8501998761
 H       -11.6106270054        2.7848929308       -2.6470675482
 H        -9.8936009840        3.5644348609        4.0322664840
 H       -10.1526059582        5.2985972944        3.9948210096
 H        -8.6134098377        4.6024096213        4.7041230692
 H        -7.1717469820        6.1924821953        3.1774894410
 H        -8.6326073251        6.9380559363        2.8247084862
 H        -7.7043103566        6.3832207916        1.4830674770
 H        -5.8175340178       -0.3830643526       -2.3974274264
 H        -7.1845150990       -0.0654124955       -1.3927992906
 H        -5.9505340169       -1.1187873737       -0.8390234174
 H        -3.6985469346       -0.4815948227       -0.7147217188
 H        -3.7413757794        0.6975399525        0.5867912032
 H        -3.1638115394        0.9958736054       -1.0562320992
 H        -5.9415856458        7.9965276373       -4.1472261265
 H        -6.3102622877        6.5561601708       -4.7685838816
 H        -5.0388286036        6.6047731933       -3.4871459142
 H        -7.4469963704        7.9182537226       -0.7798576904
 H        -6.3384909468        8.5595866118       -1.9155203529
 H        -5.7778119593        7.2409407322       -1.0624697827
 H       -11.4438726405       11.5815229346       -2.0201806674
 H       -13.0916737129       11.5826270917       -1.4734314399
 H       -12.8015127363       11.1311588771       -3.0940357788
 H       -12.4845506752        8.6175662242        0.4210647983
 H       -13.4147081160       10.1672116332        0.3037396852
 H       -11.6256330219       10.1811653556        0.3243051365
 Na       -8.8878675974        1.1480837152        2.3831497854
