117

 C       -14.6363677438        9.0137573210       -2.2944435949
 C       -13.1067285649        8.7215003374       -2.0376889055
 O       -12.7568697391        7.5828249396       -2.0056627120
 C       -11.9382154397        9.8247646093       -1.7804358244
 C       -10.5032830733        9.0129202709       -2.1873956612
 O        -9.6765384575        8.8437226404       -1.3418301018
 C       -10.2218714407        8.6644956228       -3.6332652284
 C        -8.8103171322        8.1710295412       -4.0807150571
 C        -8.4950547511        6.7943471139       -3.4763257502
 O        -9.2695038865        5.8444198919       -3.6701927089
 C        -7.0772708472        6.4746459583       -2.7544099116
 C        -7.2025568544        5.0272103992       -2.1444961206
 O        -7.2389844137        4.8613949655       -0.9584785233
 C        -7.0464184848        3.8243904728       -3.0873647936
 C        -6.9073768336        2.4045676567       -2.4045994180
 C        -5.5773876197        2.2468305845       -1.5760932780
 O        -4.6304152804        2.9948299261       -1.7324135658
 C        -5.5245912354        1.0672540867       -0.5801533507
 C        -6.1710595048        1.4764620365        0.7033016866
 O        -7.2868601893        1.0255859699        0.9548440070
 C        -5.4018717694        2.3948186340        1.7883642271
 C        -5.9725240193        3.8265265149        1.9152970812
 C        -7.2869833357        3.9586185853        2.5918722651
 O        -7.6927521276        3.0343495485        3.2829295851
 C        -8.2293459310        5.0982023708        2.2383684718
 C        -9.3187652275        4.4133444179        1.2461379545
 O        -9.6226513421        3.2456332182        1.3972190171
 C       -10.0766975827        5.2934717940        0.2371841915
 C       -10.8244863897        4.4096141267       -0.7359133129
 C       -12.1386396805        3.7142016415       -0.1987375351
 O       -12.9695582446        4.3156303389        0.3756148188
 C       -12.3958680282        2.2147190460       -0.5694738450
 C       -11.9718362293        1.3438245039        0.6947644475
 O       -10.9088703518        0.7298839612        0.7101828343
 C       -12.8069992455        1.4393937467        1.9283232445
 C       -12.0412820985        1.1584547760        3.2679034180
 C       -11.4789855990       -0.2644983043        3.3940875965
 O       -10.2713179290       -0.3875161165        3.4651984441
 C       -12.4064417301       -1.5499917465        3.4072214119
 C       -12.5502222207       -1.8457789766        1.7822390470
 O       -13.5241520949       -1.4581959696        1.1731338456
 C       -11.4616292495       -2.7258001753        1.2330535794
 C       -11.6511934403       -2.6759597260        4.2207992739
 C       -13.8259549849       -1.2984250854        3.9196632477
 C       -13.9442974612        1.9281523924       -0.8051827433
 C       -11.6218825282        1.7470427952       -1.9091048778
 C        -9.2120207036        5.5267025646        3.4097440480
 C        -7.4668801788        6.3574495318        1.8376671028
 C        -6.2910951687       -0.1220680708       -1.2254196127
 C        -4.1485015153        0.5349183672       -0.3721458206
 C        -6.0897531108        6.5225168870       -3.9088302789
 C        -6.8115022218        7.5048239181       -1.5870421724
 C       -12.0739584614       11.1171200048       -2.5697174069
 C       -11.8756768687       10.2166535938       -0.2366823828
 H       -15.1121600154        8.0689021394       -2.5471190563
 H       -14.6517947443        9.6590416740       -3.2063812288
 H       -15.0336181017        9.5059602752       -1.3978625550
 H       -10.4703388688        9.5563229991       -4.2255451441
 H       -10.9981452941        7.9225712113       -3.9712717349
 H        -8.0321463822        8.8404884584       -3.8035096341
 H        -8.8046512604        8.0757408873       -5.1722186280
 H        -6.1294543977        3.9432908304       -3.7523966195
 H        -7.9131849738        3.7081730894       -3.7592142773
 H        -6.9374310508        1.6419647080       -3.2002129636
 H        -7.7282909461        2.0539473848       -1.7596352590
 H        -4.2760140781        2.2981843970        1.4898800307
 H        -5.4902201882        1.9268522812        2.7542341943
 H        -6.0933829242        4.2766567673        0.9491733888
 H        -5.1471045796        4.3594263036        2.4794004488
 H        -9.4633443848        5.9989901111       -0.2914026863
 H       -10.8000759714        5.7891276386        0.9455853052
 H       -10.0800253537        3.7336068141       -1.1257608819
 H       -11.1259665576        5.0626878058       -1.5762876946
 H       -13.6975564226        0.8324079056        1.8364513418
 H       -13.1779832267        2.4724498053        2.0127168483
 H       -12.6907769925        1.3466591757        4.1772668579
 H       -11.1520164778        1.7654927793        3.3412417719
 H       -10.5986422164       -2.0911137271        1.1411906795
 H       -11.6210793126       -3.1950809943        0.2535444914
 H       -11.1414962615       -3.5258558322        1.9881062571
 H       -10.6583982452       -2.7817146016        3.7846032957
 H       -12.1786229662       -3.6178558805        3.8965683682
 H       -11.7720334275       -2.5485843638        5.2555332281
 H       -14.3339793798       -0.5071685116        3.4191562598
 H       -13.8072288401       -1.1089142298        4.9775094168
 H       -14.3851354411       -2.2068579344        3.6929359661
 H       -14.3470285620        2.2857849139       -1.7082328470
 H       -14.5232274854        2.3578387132        0.0456177725
 H       -14.0353565872        0.8683885688       -0.7235751237
 H       -12.0922656238        0.8540562093       -2.3645511191
 H       -10.5561435773        1.5906857839       -1.7913062618
 H       -11.7724060013        2.4868952348       -2.6658724721
 H        -9.8270505509        4.6246552100        3.6432646838
 H        -9.8389247059        6.4104841205        3.2660532030
 H        -8.6889443488        5.6098127662        4.4053796322
 H        -7.2042463969        6.8390183881        2.7196715074
 H        -8.0250739086        7.1069203286        1.2235619629
 H        -6.5432616558        6.1861081245        1.3991321961
 H        -6.2266070157       -0.1969062617       -2.3105873152
 H        -7.3164659413       -0.0175176168       -0.9723191035
 H        -5.9934310429       -1.0435390868       -0.7841134087
 H        -3.9567349605        0.2651484829        0.5952788834
 H        -3.2949915959        1.2246682878       -0.5955470419
 H        -3.8963420509       -0.2446341915       -1.1596114346
 H        -5.8510129239        7.6397240015       -4.0637313672
 H        -6.4362921956        5.9514739013       -4.8000958779
 H        -5.1360211734        6.0676442247       -3.6434555522
 H        -7.4028292669        7.2225751978       -0.7357817535
 H        -7.1311738319        8.5216567132       -1.8708034820
 H        -5.7995914612        7.5042502969       -1.2466929744
 H       -11.3558680473       11.8395170804       -2.2155952759
 H       -13.0540947411       11.5962157530       -2.4587669265
 H       -11.8697967462       10.9318238670       -3.5943478952
 H       -12.1659589032        9.4991783897        0.5113820798
 H       -12.6061589862       11.0388729501       -0.1834013303
 H       -10.8888133944       10.4421153300        0.0835930055
 Na       -8.9384875067        1.2900386063        2.4409602387
