117

 C       -14.3996646777        9.1382485044       -2.2253181254
 C       -12.9360746490        8.7060509301       -2.0034833399
 O       -12.6267070511        7.5170468880       -1.9488647456
 C       -11.8389721189        9.7924280464       -1.8452043747
 C       -10.5290235699        9.0943922022       -2.1726558966
 O        -9.7163201629        8.7108798112       -1.3278594881
 C       -10.2814234900        8.6147131693       -3.7203572339
 C        -8.8184387169        8.1326462074       -4.0010934260
 C        -8.5272147939        6.7399403020       -3.4515604537
 O        -9.2465266866        5.8121184576       -3.7104121140
 C        -7.1462930319        6.4706857557       -2.7538780380
 C        -7.1270454872        5.0406915615       -2.1243838145
 O        -7.2177650960        4.8858990496       -0.9122733136
 C        -7.0137650343        3.8140430627       -3.1283381811
 C        -6.9753052493        2.4661155826       -2.3804648258
 C        -5.6753008504        2.3083932512       -1.5698450243
 O        -4.7838405067        3.1099023644       -1.6439293253
 C        -5.5560040390        0.9974461116       -0.5919597211
 C        -6.2746013038        1.4330818293        0.7371178317
 O        -7.3954116749        1.1220470453        1.0490383325
 C        -5.5089316909        2.3415955558        1.7957982301
 C        -5.9174175514        3.8093339437        1.8376868869
 C        -7.2995456797        3.8839290243        2.5216313746
 O        -7.6274505538        3.1086988527        3.3981980248
 C        -8.2553025621        5.0789344716        2.1972562408
 C        -9.3423098498        4.4637250233        1.2270597542
 O        -9.5928930732        3.3183666701        1.3140218150
 C       -10.1475300508        5.2983320725        0.2224685322
 C       -10.9266108108        4.5167850553       -0.8059088201
 C       -12.1722372880        3.7263790713       -0.2583023858
 O       -12.9680473425        4.3849821579        0.4010096839
 C       -12.3879562498        2.1412997476       -0.5339932883
 C       -11.8991327185        1.3844667365        0.7540099804
 O       -10.9450507774        0.6118837249        0.7756696496
 C       -12.8899175981        1.4935177048        1.9533193504
 C       -12.2472969276        1.1230422720        3.3367953036
 C       -11.4967230170       -0.2332492272        3.3607968864
 O       -10.2869553394       -0.3862077660        3.4319356133
 C       -12.3957096279       -1.5375261692        3.3662680232
 C       -12.4751978268       -1.9303181221        1.8592802299
 O       -13.3969068619       -1.4204033514        1.2409661847
 C       -11.5341252434       -2.8316800794        1.1250355403
 C       -11.6908784063       -2.5900933692        4.1899391250
 C       -13.7631748523       -1.3276087778        4.0399988334
 C       -13.8792821030        1.8611736571       -0.7559345530
 C       -11.6049133793        1.8525605706       -1.8347363150
 C        -9.1534422565        5.5494606141        3.3499920017
 C        -7.4903023108        6.3469837334        1.6379452664
 C        -6.3079644142       -0.2761636995       -1.2333323203
 C        -4.0307205023        0.6610043301       -0.3271878784
 C        -6.0495310009        6.3607421324       -3.8974393158
 C        -6.8797137830        7.5176660152       -1.7150238035
 C       -12.1123859863       11.0311964165       -2.6799736404
 C       -11.7605665097       10.2016950396       -0.3710924092
 H       -15.0058077528        8.2096699508       -2.4017276454
 H       -14.4708457884        9.8074568361       -3.1275957964
 H       -14.6647210893        9.6239733763       -1.3017545484
 H       -10.5686180562        9.4039539828       -4.5124834943
 H       -10.9820497691        7.7283446998       -3.9573960778
 H        -8.0875686041        8.7921182761       -3.6688761731
 H        -8.6598916708        8.0536089380       -5.0474097761
 H        -6.1890177805        3.8080948493       -3.8222781242
 H        -7.9669851255        3.7963454339       -3.7178100166
 H        -6.9610452836        1.5985149801       -3.1262876445
 H        -7.8265787660        2.1735994575       -1.7390761011
 H        -4.4272761531        2.2444624529        1.5106620181
 H        -5.6126104844        1.8822234975        2.7426097955
 H        -5.8417032246        4.2048835968        0.8123998649
 H        -5.1581810885        4.2756221577        2.4891092355
 H        -9.4342782994        5.9180519929       -0.3512718803
 H       -10.8437563190        5.9562734241        0.8413004258
 H       -10.1677139990        3.8807448481       -1.2694523885
 H       -11.2438202610        5.2425182005       -1.5504087231
 H       -13.7365158962        0.8312627141        1.7913806569
 H       -13.3146386919        2.4917218083        2.1097674698
 H       -13.1031714631        1.0752622415        4.0695776598
 H       -11.5125468955        1.8577340401        3.7120309225
 H       -10.6955930992       -2.2698991509        0.7622859650
 H       -11.9800913866       -3.3259873010        0.2416743827
 H       -11.1311206706       -3.5879091967        1.8154977276
 H       -10.8300767428       -2.9382927754        3.6760283849
 H       -12.3796175734       -3.4013222939        4.3433559913
 H       -11.5472742693       -2.1825679778        5.1549919524
 H       -14.4361667086       -0.6817978922        3.4907774691
 H       -13.6368457151       -0.9634241430        5.0532131434
 H       -14.2548269653       -2.3320826707        3.9840270524
 H       -14.2163392581        2.5482017047       -1.5699547759
 H       -14.4147215935        2.1894964091        0.1539600421
 H       -14.1088790446        0.8362003369       -0.9728491449
 H       -12.0229334616        1.0167371211       -2.3718248231
 H       -10.5362662695        1.6859334240       -1.6110750595
 H       -11.6595298385        2.6721559761       -2.5672932911
 H        -9.8545519161        4.7799904359        3.6782839868
 H        -9.6479127865        6.5158441636        3.1896626693
 H        -8.5493647291        5.6653662102        4.2284057066
 H        -6.6814757244        6.6395633202        2.3191411565
 H        -8.1184367359        7.1599934759        1.4055760067
 H        -6.8984188539        6.0778033824        0.7429597217
 H        -5.8862711390       -0.4807755897       -2.2501875811
 H        -7.3899203923       -0.0890704711       -1.3892939248
 H        -6.1762792940       -1.2135398140       -0.6324659341
 H        -3.9271285676        0.2134559667        0.6506128480
 H        -3.3294388692        1.4906656015       -0.2562671960
 H        -3.5280900316        0.1374989501       -1.1804793317
 H        -5.6696726564        7.3787716206       -4.2132879544
 H        -6.4241599162        5.6699428119       -4.7097735309
 H        -5.1751813478        5.8445710389       -3.5319338672
 H        -7.4609063112        7.4436747516       -0.7922027937
 H        -7.0520055291        8.4800221463       -2.1481144742
 H        -5.8646684320        7.4409861563       -1.3882439456
 H       -11.1849624873       11.6109338698       -2.7421752958
 H       -12.8662966504       11.6702829221       -2.2634280245
 H       -12.3562331911       10.7396821940       -3.7088675529
 H       -11.9669090507        9.4594328705        0.3826722748
 H       -12.5416652844       10.9725533417       -0.2493362836
 H       -10.7473693982       10.5414094412       -0.1058320526
 Na       -8.9227291450        1.3650471903        2.4932679629
