117

 C       -14.0586855414        9.2985869158       -1.5736049297
 C       -12.7231065948        8.6337504980       -1.8411146391
 O       -12.6131590368        7.4472857900       -1.9573378125
 C       -11.5599892190        9.6004464691       -2.0616371078
 C       -10.2568132228        8.7258455605       -2.4705688124
 O        -9.5237139685        8.3550992795       -1.5766532372
 C       -10.0618775565        8.2862572311       -3.9286064880
 C        -8.6700021965        7.8933617759       -4.2226783376
 C        -8.3475211382        6.5334354851       -3.6037228781
 O        -9.2404943247        5.7074573438       -3.5115008671
 C        -6.8885412356        6.1455338722       -3.1532534067
 C        -7.1503692967        4.7729700102       -2.4327690898
 O        -7.5645906848        4.8653090595       -1.2772287848
 C        -7.1651325864        3.5110410053       -3.2273683850
 C        -7.1511476711        2.2392904249       -2.3714231596
 C        -5.8992615989        2.2594105148       -1.3863751524
 O        -5.2387051300        3.2904220481       -1.3876504260
 C        -5.5854293958        0.9621658359       -0.5430206000
 C        -6.3755670738        1.3172147058        0.7768268399
 O        -7.4534844071        0.8019627279        1.0297708041
 C        -5.7661274393        2.3929684528        1.7790082199
 C        -6.3712702604        3.8493848041        1.6898010279
 C        -7.6537565195        4.0068201544        2.5634345414
 O        -7.9739893552        3.1946829289        3.4495372192
 C        -8.4897651445        5.2442612987        2.1765399554
 C        -9.5296505850        4.7617829927        1.1251835110
 O        -9.8678408802        3.5515136192        1.1879333657
 C       -10.2768671320        5.7606507353        0.1525341967
 C       -11.1451893261        4.8533261100       -0.7557686547
 C       -12.0246752242        3.8778534787        0.1058802904
 O       -12.5605393174        4.2658676553        1.1266584216
 C       -12.2722981691        2.3777393594       -0.4005453461
 C       -11.9921508250        1.5526773799        0.9007169953
 O       -10.9028687184        1.0659578634        1.0340606181
 C       -12.9862351939        1.4892126137        2.0084222375
 C       -12.3960458512        1.2201031914        3.4172191381
 C       -11.5597293590       -0.1334539197        3.4865002755
 O       -10.3334861660       -0.0996951527        3.5334871312
 C       -12.2100810304       -1.5097605243        3.4044586372
 C       -12.5662974578       -1.9546599676        1.9652631454
 O       -13.4451687962       -1.3819503252        1.3691560911
 C       -11.8448919675       -3.1824627302        1.2547664794
 C       -11.3267226994       -2.5954216706        4.0984532186
 C       -13.5216123692       -1.3864610826        4.2648684740
 C       -13.7311887029        2.0749622050       -0.9262551580
 C       -11.2214313319        1.9617209926       -1.4760997973
 C        -9.4179115592        5.5961462308        3.3651413858
 C        -7.6700899315        6.5174476734        1.8003447235
 C        -6.1208307288       -0.2892013711       -1.2009702154
 C        -4.0810837565        0.9750565282       -0.2212189139
 C        -5.8878531613        6.0463185121       -4.2565212581
 C        -6.2712783532        7.2643823186       -2.2620392426
 C       -11.9978119865       10.6242344581       -3.1511802978
 C       -11.2474043986       10.2565242969       -0.6853447905
 H       -14.3247313613        9.1441213762       -0.5158938234
 H       -14.7417280970        8.8496456467       -2.2875154959
 H       -14.0127495181       10.4253817129       -1.7048614447
 H       -10.2750437925        9.2296788912       -4.5596579907
 H       -10.8601308391        7.5081679832       -4.1904837407
 H        -7.9834394883        8.6456752664       -3.8649781117
 H        -8.4887285676        7.8130677628       -5.2361293394
 H        -6.3243921359        3.5523133104       -3.9238695762
 H        -8.0813916496        3.4245937452       -3.8371445841
 H        -7.1305709318        1.3019906008       -2.9776885911
 H        -8.0462224413        2.2591740056       -1.6793323124
 H        -4.7381869775        2.4311804174        1.6029515111
 H        -5.9139968543        2.0436978979        2.8175059248
 H        -6.6446067674        4.1162888756        0.6413938989
 H        -5.5596104915        4.3841064237        2.1331113912
 H        -9.5762897264        6.4042165623       -0.4934362605
 H       -10.9188502054        6.4392370161        0.7334746942
 H       -10.3277781286        4.3620653253       -1.3018494699
 H       -11.7372427925        5.4611424730       -1.4199360529
 H       -13.7147583927        0.6760952550        1.8648921137
 H       -13.5257392550        2.4121861731        2.0720252430
 H       -13.1758439347        1.1323584254        4.1564250005
 H       -11.8490085813        2.1556002173        3.7619853004
 H       -10.7838367903       -3.4555266600        1.5625462931
 H       -11.8474750800       -3.0057861186        0.1893971952
 H       -12.4347879189       -4.0512909062        1.4644723453
 H       -10.3443531941       -2.5759960018        3.7110309189
 H       -11.8871421979       -3.4691987635        4.0470914482
 H       -11.2773323133       -2.3086748471        5.1710813725
 H       -14.1953574150       -0.5854006991        3.9070967977
 H       -13.3730676355       -1.2603105082        5.3385760029
 H       -14.0118413351       -2.2975904493        4.0713102441
 H       -13.7223254785        2.4417876074       -1.9451506355
 H       -14.4961508576        2.5751189579       -0.4071101927
 H       -13.8492174269        0.9692029953       -1.0478178189
 H       -11.4732367018        0.9485512540       -1.7537290517
 H       -10.2002145767        1.9368531452       -1.1058281391
 H       -11.1911521134        2.6097393268       -2.3537519853
 H        -9.9732643425        4.7504602171        3.7896632433
 H       -10.1784764489        6.3666530649        3.1313449135
 H        -8.8208235891        6.1043451196        4.1540363961
 H        -7.3822733976        7.0627171430        2.7013083943
 H        -8.3546660497        7.1039437671        1.1654274061
 H        -6.7963897638        6.4174160711        1.2411717841
 H        -6.1302907676       -0.1782163083       -2.2726233835
 H        -7.1348825878       -0.5286084515       -0.8577450104
 H        -5.4335671641       -1.1097676130       -1.0458432762
 H        -3.8203660299        0.4453060826        0.7282915788
 H        -3.7422861691        2.0350239610       -0.0999611292
 H        -3.3770585814        0.5838258061       -0.9560239637
 H        -5.6875611375        7.0075064736       -4.7551736295
 H        -6.2489520522        5.2836086820       -5.0011851021
 H        -4.8780117261        5.6665402154       -3.8025851463
 H        -6.9862223608        7.7529041457       -1.6394059027
 H        -5.7848867238        7.9894708295       -2.8801422624
 H        -5.5286567842        6.8622541064       -1.5443217323
 H       -11.1104580569       11.1567468338       -3.4465042106
 H       -12.6955356528       11.3252519365       -2.7301699731
 H       -12.4414736879       10.2273672021       -4.0503152942
 H       -10.6897725736        9.4874679507       -0.1284835797
 H       -12.0767407708       10.3870831485       -0.0343693632
 H       -10.8395344977       11.2781075424       -0.7369571942
 Na       -9.1016830775        1.6065746513        2.3920927731
