117

 C       -14.0288419872        9.2979661068       -1.3831355039
 C       -12.7209007773        8.6406701129       -1.8603771655
 O       -12.5927031324        7.4500930601       -2.0079407203
 C       -11.4715181611        9.6290418570       -2.0901738815
 C       -10.2935142462        8.7115540695       -2.5313734380
 O        -9.4810522660        8.2910975952       -1.7284004861
 C       -10.0463233755        8.3348286080       -4.0126263195
 C        -8.5944121748        7.9119369027       -4.2551665707
 C        -8.3682406337        6.5128691750       -3.6656045054
 O        -9.2749002204        5.6920430415       -3.5258491684
 C        -6.8302105399        6.0596471061       -3.2135317442
 C        -7.1561210820        4.8046594799       -2.3716908255
 O        -7.5760362547        4.7995040345       -1.2399366494
 C        -7.1309348608        3.4980083081       -3.2242521722
 C        -7.1266593623        2.1877424045       -2.4146664563
 C        -5.8398776699        2.2564162842       -1.4802077486
 O        -5.1961821925        3.2793922706       -1.3803528368
 C        -5.6091012394        1.0917304113       -0.4972162550
 C        -6.4289087323        1.3807674128        0.7931720900
 O        -7.4207161359        0.7187423785        1.0344828608
 C        -5.8702038145        2.4343881953        1.8276442017
 C        -6.4768371948        3.8173189122        1.6878752483
 C        -7.7038416434        4.1165209378        2.5372191027
 O        -8.0430744942        3.3804575211        3.4134711810
 C        -8.5640264671        5.3787475550        2.2284346210
 C        -9.5463453769        4.7777339606        1.1250805683
 O        -9.8435455028        3.6077863625        1.1043614896
 C       -10.2219837232        5.7097674881        0.1708455521
 C       -11.2084681278        4.9012016033       -0.7151282564
 C       -12.0687769894        4.0111659498        0.1142133859
 O       -12.5621851634        4.3207515381        1.1495809843
 C       -12.2306866909        2.4388819001       -0.3465349387
 C       -11.9241318059        1.5384558734        0.9129252252
 O       -10.8844792624        0.9033934186        0.9673626695
 C       -13.0126079635        1.4859924922        1.9595387531
 C       -12.4084184479        1.1173593019        3.3284307219
 C       -11.5005498186       -0.1596633662        3.4010624546
 O       -10.3011764248       -0.0235072780        3.6167546590
 C       -12.2486732926       -1.5256828476        3.4878392363
 C       -12.5686957052       -1.9540241568        2.0096917981
 O       -13.4447598491       -1.3640336413        1.4010265780
 C       -11.8993658440       -3.1128931969        1.2964727550
 C       -11.2426189950       -2.5156282103        4.1444087820
 C       -13.5914785374       -1.4222725286        4.3072573657
 C       -13.6788959511        2.1880051436       -0.8361394932
 C       -11.2338768935        2.0566400971       -1.4060148193
 C        -9.5334219248        5.6890382307        3.4602342866
 C        -7.7518988415        6.5388032163        1.9064033994
 C        -6.0902370152       -0.3015936135       -1.0990038623
 C        -4.0805738301        0.9320942619       -0.2560764528
 C        -5.9042283832        5.7202190321       -4.4175650739
 C        -6.2264672997        7.2036508276       -2.3272445490
 C       -11.9692198707       10.5776993361       -3.1896674707
 C       -11.2051107841       10.2528862483       -0.7252648931
 H       -14.0515894843        9.2673292314       -0.2939132504
 H       -14.8740443614        8.8029710057       -1.8943761482
 H       -14.0167301058       10.3699408807       -1.6211687481
 H       -10.3937031433        9.1045612684       -4.6750357668
 H       -10.6805330993        7.4315229369       -4.1730268180
 H        -7.8580571909        8.5076689034       -3.6997431504
 H        -8.2565210183        7.9280648631       -5.3312123144
 H        -6.2565754397        3.4829004432       -3.8935667239
 H        -7.9554990513        3.3983066090       -3.8691368737
 H        -7.1883472809        1.3206594777       -3.0501055882
 H        -7.8978360705        2.1825165620       -1.6098986098
 H        -4.7075563746        2.4824466162        1.6054558219
 H        -6.0047891928        2.1410821055        2.8471260611
 H        -6.6617620354        4.0790898362        0.6560383961
 H        -5.6545142967        4.3673009629        2.1731814559
 H        -9.5259337283        6.3600055740       -0.3914884448
 H       -10.8343500721        6.3696494417        0.8115890691
 H       -10.5740826239        4.5057608772       -1.4831604260
 H       -11.8643799801        5.6972819271       -1.1517477193
 H       -13.7027268880        0.6563730821        1.7185589196
 H       -13.5677165470        2.4286718383        2.0386082550
 H       -13.0675477502        0.9828983025        4.1905196537
 H       -11.8386506152        2.0270913848        3.5857209907
 H       -11.0519184877       -3.4735307753        1.7912497561
 H       -11.6150420225       -2.8353246663        0.3090286016
 H       -12.6198777149       -3.9713511747        1.2655394860
 H       -10.3538371606       -2.4874125086        3.5469916928
 H       -11.7902758577       -3.4459645774        4.1369020151
 H       -10.9227380073       -2.2343839812        5.0906901412
 H       -14.3835754508       -0.8538987416        3.7883834355
 H       -13.4843081973       -1.0035118949        5.3332154613
 H       -13.8943603593       -2.4838904252        4.3724129213
 H       -13.8853014836        2.8837571061       -1.6358086791
 H       -14.3770329919        2.4709269570        0.0090752535
 H       -13.7999450045        1.1757071040       -1.2510465159
 H       -11.4953422939        1.0491070557       -1.8178429567
 H       -10.2147119965        1.9496732090       -1.0239901644
 H       -11.1726970592        2.7874794582       -2.1918982006
 H       -10.2236268883        4.8639869089        3.5130050242
 H       -10.1371044943        6.5523688462        3.3662389892
 H        -9.0259266690        5.8109314356        4.4255155379
 H        -7.4552793121        6.9777745211        2.8571777374
 H        -8.2685455781        7.3141820708        1.2291042399
 H        -6.8200274591        6.3044949481        1.3708435477
 H        -6.0311508348       -0.3159691477       -2.2433517395
 H        -7.1545973546       -0.4463387140       -0.7985284618
 H        -5.4641399353       -1.1621307374       -0.7514679026
 H        -3.8525445173        0.5252703594        0.6369328989
 H        -3.4585691556        1.8550047329       -0.3735049098
 H        -3.6060304181        0.1669156214       -0.9377277787
 H        -5.4997137944        6.6683670489       -4.9029307061
 H        -6.3978715723        5.1210693313       -5.1927614122
 H        -5.0681868854        5.2037416047       -4.0257069793
 H        -6.8225971778        7.2744510111       -1.4362818829
 H        -6.0887658981        8.2046836332       -2.7746699650
 H        -5.2479265894        6.9005637243       -1.9719046134
 H       -11.3043514875       10.9713698369       -3.9513362928
 H       -12.5302799435       11.3950655156       -2.6909853338
 H       -12.7377822817       10.0372188091       -3.7085966869
 H       -10.9626135823        9.4939275080        0.0072357528
 H       -12.0485970972       10.7875632101       -0.2592021823
 H       -10.5617132939       11.0919403251       -0.8378946340
 Na       -9.0947503607        1.4615055096        2.3872208455
