117

 C       -13.8927223893        9.1271585222       -0.9746798916
 C       -12.7100712765        8.5987415107       -1.8398528241
 O       -12.7314019235        7.4532957809       -2.2217328106
 C       -11.4501797492        9.5861145055       -2.2456532849
 C       -10.2174979490        8.6308596561       -2.6664905822
 O        -9.4827560988        8.3093937148       -1.7468225074
 C        -9.9522322939        8.3429657301       -4.1439682544
 C        -8.5435917092        7.8986814991       -4.4052495523
 C        -8.3947155354        6.4846000339       -3.7649338704
 O        -9.3021950657        5.6908907999       -3.7673009587
 C        -6.9240504129        6.0308171609       -3.3003614133
 C        -7.2239702219        4.6238218743       -2.5241517262
 O        -7.3977965430        4.7547244555       -1.3087082093
 C        -7.2725859241        3.2578267711       -3.1901258418
 C        -7.0967376194        2.0607901771       -2.2199866167
 C        -5.7411058011        2.1338935822       -1.4298767467
 O        -5.0496184118        3.1230874921       -1.4655062660
 C        -5.5298730081        0.9958084808       -0.3396013098
 C        -6.3823307397        1.3682313182        0.9536733750
 O        -7.4486926071        0.7840719661        1.0633810575
 C        -5.9547880778        2.4564024669        1.9441991526
 C        -6.6799297669        3.8542714951        1.6778598418
 C        -7.8004114184        4.1848180497        2.6045836369
 O        -8.0568207939        3.3651079427        3.5158294713
 C        -8.6808975996        5.3574659246        2.3514162713
 C        -9.4674385396        4.8704732809        1.1154248048
 O        -9.6212206156        3.6492275441        1.0095233497
 C       -10.1824942344        5.8342546555        0.1899702461
 C       -11.3464170331        5.0969749074       -0.6340273612
 C       -12.0913749683        4.0299924634        0.1413457988
 O       -12.7221027027        4.3463091135        1.1650559584
 C       -12.1885650572        2.5457542249       -0.3122934165
 C       -11.8975210097        1.5123466874        0.8409274265
 O       -10.9696439147        0.6860860735        0.7745564442
 C       -12.8855502113        1.5443581572        1.9996236913
 C       -12.3352314623        1.2027291357        3.4260446190
 C       -11.5480360458       -0.0860803500        3.4940433830
 O       -10.3353797037       -0.1280056355        3.6641228287
 C       -12.2442508847       -1.4869775476        3.5767704157
 C       -12.5511538871       -1.9354920790        2.0940650325
 O       -13.5004331783       -1.3896212933        1.6025072876
 C       -11.8727503855       -3.1135169403        1.3229905848
 C       -11.2208706667       -2.4701412363        4.2311801444
 C       -13.5523442584       -1.6135786680        4.4184751928
 C       -13.6707398963        2.5714757367       -0.8132518406
 C       -11.2650391523        2.2076868175       -1.5581445109
 C        -9.6137219820        5.6983565905        3.5194861751
 C        -8.0091863144        6.7385462257        1.8713891175
 C        -6.1094819780       -0.3340343173       -0.9352298517
 C        -4.0084048754        0.9535085478       -0.1508950860
 C        -6.2194425903        5.7990363314       -4.6549226685
 C        -6.0617797601        6.9366607213       -2.3828887739
 C       -11.8178279380       10.6184878187       -3.2861795932
 C       -10.9389759136       10.3658252468       -0.9643695288
 H       -13.4701251083        9.2716058630        0.0083157814
 H       -14.6670492533        8.4221032143       -1.0276145307
 H       -14.2389464812       10.1024750361       -1.2856681163
 H       -10.0742736654        9.3174821641       -4.6276250681
 H       -10.6333103733        7.6720636151       -4.5849885406
 H        -7.7185943138        8.5940377256       -4.1160348446
 H        -8.4764166017        7.7623423871       -5.4848853548
 H        -6.6063202057        3.2047143171       -4.0394861535
 H        -8.2957264967        3.0744984544       -3.6651623139
 H        -7.0792291563        1.1904045973       -2.8787366040
 H        -7.7785769883        2.0123611688       -1.4070110560
 H        -4.9543573704        2.5086223890        1.7744014878
 H        -6.0978600087        2.1912250544        3.0490617694
 H        -7.0673658412        3.8363954485        0.6337644092
 H        -5.9324075193        4.6159568239        1.8595646803
 H        -9.4702047833        6.3094653128       -0.4664554248
 H       -10.5785520059        6.6528101266        0.7786160253
 H       -10.7741819914        4.8276812314       -1.5388142822
 H       -11.9817684312        5.9018201197       -0.9265533999
 H       -13.6843274399        0.8041692094        1.9036788793
 H       -13.3136674939        2.5497184156        2.1086886737
 H       -13.0670702944        1.1421484984        4.2287064072
 H       -11.7019848808        2.0635296808        3.6845935752
 H       -11.2689461307       -3.8650887070        1.9300226009
 H       -11.2324902761       -2.6671141344        0.5496518739
 H       -12.6254532751       -3.6446307082        0.8381340803
 H       -10.1900537892       -2.4052565784        3.8373786132
 H       -11.7286941200       -3.4294927612        4.1688310249
 H       -11.0475022167       -2.0724036560        5.3000641282
 H       -14.4049527144       -1.4173166376        3.7559469611
 H       -13.5984132399       -0.8499838906        5.1932968995
 H       -13.6403506510       -2.5868423152        4.8701161627
 H       -13.8009080279        3.3925695514       -1.5557446536
 H       -14.3046562412        2.7583939051       -0.0091250130
 H       -13.8404825784        1.6145436738       -1.3312679743
 H       -10.9841909924        1.1784173231       -1.5842088868
 H       -10.2924536157        2.7095216462       -1.5009366870
 H       -11.7156992362        2.5628278679       -2.5074094945
 H       -10.5507764644        5.1909048496        3.6414897460
 H        -9.8792094929        6.7667016715        3.5055017097
 H        -9.0214012976        5.5879414189        4.3928763214
 H        -7.1095409944        7.0125572959        2.4917171579
 H        -8.6461407319        7.6054078988        1.9404869325
 H        -7.6808651159        6.6556880529        0.8337581530
 H        -5.3823838421       -0.8715764826       -1.4897074890
 H        -6.9828492262       -0.1474295473       -1.5550735444
 H        -6.4695753474       -0.9823464002       -0.1293405968
 H        -3.5443386149        0.3687492927        0.7231818213
 H        -3.7943432749        1.9832767987        0.0285986841
 H        -3.4202968601        0.5528906536       -0.9094631238
 H        -6.0229379724        6.5986587059       -5.2436922812
 H        -6.8627276790        5.2117793187       -5.2488429819
 H        -5.2912582191        5.2719647763       -4.3600654064
 H        -6.2587144224        6.7317140634       -1.3055071396
 H        -6.1986149096        8.0063327307       -2.4869946113
 H        -4.9804979042        6.7792331785       -2.6204701119
 H       -10.8479216835       11.0774764480       -3.5619099987
 H       -12.4084585708       11.4138429633       -2.8579204773
 H       -12.2785155100       10.2716539626       -4.2439599957
 H       -11.1248097934        9.8070427178       -0.0537444190
 H       -11.4330807197       11.2846906834       -0.8144199019
 H        -9.9513407643       10.8117665576       -1.0668977030
 Na       -9.1628702167        1.4645382405        2.3719313841
