117

 C       -13.3648164372        8.9816420087       -0.6395886375
 C       -12.4876952054        8.6999130726       -1.8970331743
 O       -12.7411170590        7.7795193810       -2.6559174001
 C       -11.2981882467        9.6266136784       -2.2536964798
 C       -10.1069055408        8.7231081689       -2.7584988759
 O        -9.4970564395        8.1266651391       -1.8985088720
 C        -9.8688023796        8.4644039127       -4.1992991064
 C        -8.5429943594        7.7954505425       -4.4679750110
 C        -8.4840526883        6.2630687910       -3.9359228470
 O        -9.4528570753        5.5778855845       -3.7986305662
 C        -7.0414009478        5.8225016002       -3.5094606211
 C        -7.1641116138        4.5587999859       -2.5924653519
 O        -7.2705231045        4.7650298540       -1.3883671824
 C        -7.1679498094        3.0320171964       -3.1748777882
 C        -7.1547796089        1.9774028111       -2.0564046186
 C        -5.7147225744        1.8766225693       -1.3636933119
 O        -4.9098805205        2.6892140109       -1.7278030994
 C        -5.4386552905        0.9629574647       -0.1236373974
 C        -6.4498067562        1.4773383039        1.0311030492
 O        -7.5774848131        1.0228250554        1.1361001495
 C        -5.9296557677        2.5146802164        1.9468097445
 C        -6.5140816044        3.9069534800        1.7264626846
 C        -7.7798690634        4.0423431537        2.6175534540
 O        -7.9621950006        3.2974926615        3.5901718602
 C        -8.7630921152        5.2869513672        2.3029538364
 C        -9.6465448504        4.8878082768        1.0803964442
 O        -9.8265866293        3.6875420191        0.9247927020
 C       -10.4105897343        5.9105888522        0.3140761437
 C       -11.4336060598        5.2304033872       -0.7126426870
 C       -12.1512451280        4.1491243155        0.1341696610
 O       -12.6054757783        4.4530324006        1.2700980069
 C       -12.3991399729        2.6536036939       -0.3818316718
 C       -12.0347296044        1.7342720902        0.8448541791
 O       -10.9821226661        1.0582366166        0.8576321664
 C       -13.0114799733        1.4939355316        1.9169585121
 C       -12.2324211752        1.1179193421        3.2951182740
 C       -11.4309093496       -0.1293623547        3.4144876959
 O       -10.2146397297       -0.1262414032        3.3244297438
 C       -12.2146408971       -1.4741009165        3.7157473852
 C       -12.6142283380       -1.9519715242        2.2706667123
 O       -13.6239814258       -1.4921088455        1.8108072220
 C       -11.6705830696       -2.8523812779        1.4913562497
 C       -11.2849460157       -2.5148074577        4.3455693346
 C       -13.4475019778       -1.3573621457        4.6463365208
 C       -13.8454927962        2.3677512834       -0.8758431166
 C       -11.4031218561        2.3300970340       -1.4805369971
 C        -9.6633068214        5.5488109719        3.5125214446
 C        -7.8205306830        6.5697807204        2.0012472750
 C        -5.8677323653       -0.4787162756       -0.4904002486
 C        -3.9450343057        1.0592804917        0.2286037519
 C        -6.2852148803        5.3952408142       -4.7999555633
 C        -6.2729171899        6.9182873956       -2.6961080278
 C       -11.9330909520       10.5274583020       -3.3280950465
 C       -10.8377638564       10.5736523702       -1.1610771183
 H       -12.6663369176        8.9804955486        0.2472507693
 H       -14.1241320586        8.1786719555       -0.5603974712
 H       -13.8468028938        9.9631743352       -0.6637576829
 H        -9.9311976384        9.3812517596       -4.7959565585
 H       -10.6883736469        7.8322586462       -4.4590883351
 H        -7.6857405540        8.3767146867       -4.0613609048
 H        -8.4333461493        7.7425988116       -5.6064511875
 H        -6.3326103475        2.8771135075       -3.8243185324
 H        -8.0207954953        2.9317764731       -3.8347128144
 H        -7.3215349471        0.9538765290       -2.3995879892
 H        -7.8328931714        2.3252398230       -1.2820216937
 H        -4.8688961220        2.5241491140        1.9057152235
 H        -6.1260599489        2.1180893348        3.0103131393
 H        -6.7498482799        4.0121004220        0.6716389863
 H        -5.7578787156        4.6933371161        1.9947920465
 H        -9.6958187708        6.6462559804       -0.0051292492
 H       -11.0676215440        6.4860101413        1.0163173962
 H       -10.8518783006        5.0331194397       -1.6271753499
 H       -12.1716357865        5.9898458502       -0.9936058603
 H       -13.6821225114        0.6635071002        1.6931717901
 H       -13.5988697387        2.3576713203        2.2880962521
 H       -12.9899880184        1.1376493600        4.1254768051
 H       -11.5903179659        1.9660368199        3.4311469647
 H       -11.8789598595       -3.8988011595        1.7608908333
 H       -10.6309890555       -2.6070296387        1.7240407517
 H       -11.8277880708       -2.7752732294        0.4694701790
 H       -10.4238381755       -2.6292055370        3.7171631427
 H       -11.8136403876       -3.4439596064        4.3011172097
 H       -11.0379508684       -2.1859315747        5.3508341903
 H       -14.0959782176       -0.5330054950        4.3883148048
 H       -13.0553009251       -1.1823541094        5.6420185963
 H       -14.0360757661       -2.2912823374        4.7762053177
 H       -13.9901276673        2.9146712931       -1.8480216047
 H       -14.5865191503        2.6418423349       -0.1358007946
 H       -13.9054150896        1.2918103730       -0.9986076289
 H       -11.6635358785        1.4383340177       -2.0275613141
 H       -10.4111750888        2.1379373057       -1.0712152403
 H       -11.3593416866        3.1133048755       -2.2560667818
 H       -10.0543170060        4.6541896227        4.0360031454
 H       -10.5795815707        6.0092035404        3.0966837418
 H        -9.2341365680        6.2165497670        4.2361400721
 H        -7.2574912450        6.9228486419        2.9078952368
 H        -8.3334392045        7.4515232615        1.7740610057
 H        -7.1628420604        6.2282779147        1.1681915480
 H        -5.3926528556       -0.7808110603       -1.4297635598
 H        -6.9713151951       -0.4911414400       -0.6562056895
 H        -5.6738093973       -1.1937338691        0.3455847496
 H        -3.5867438903        0.3446785960        1.1025445655
 H        -3.6053119359        2.0162824205        0.4663911878
 H        -3.4297874966        0.6109988986       -0.5843010456
 H        -6.1700494147        6.2645220858       -5.4110769594
 H        -7.0149623674        4.8600914741       -5.4350887678
 H        -5.2856554491        4.9323960802       -4.6027210076
 H        -6.9238474194        7.4784844022       -2.0223558554
 H        -5.9091386451        7.6858578516       -3.3452487583
 H        -5.4106316031        6.5272079039       -2.2228936475
 H       -11.3533813933       11.3928392537       -3.6166653767
 H       -12.8361247624       10.9081202536       -2.9044024217
 H       -12.2021632769        9.9320399666       -4.2093670128
 H       -10.1657672247       10.0519996290       -0.4521627711
 H       -11.5814510113       11.1420202373       -0.5584956480
 H       -10.1533511830       11.3409632180       -1.6025497678
 Na       -9.4123540192        1.8401603793        2.2843372563
