117

 C       -12.6252539658        8.6987664172       -0.4655148773
 C       -12.3132692811        8.7062416566       -1.9284752596
 O       -12.8911208089        7.9838715292       -2.6847548029
 C       -11.1257531556        9.6928455129       -2.4601476273
 C       -10.0159345433        8.6815764662       -2.8688440853
 O        -9.1613884185        8.2936454171       -2.0894934251
 C       -10.0713003192        8.0569032650       -4.2048693645
 C        -8.7743961626        7.3970385965       -4.5240487997
 C        -8.5393670247        5.9996618540       -3.8088023094
 O        -9.4633076891        5.2313285461       -3.6134951772
 C        -7.0123267311        5.5352826703       -3.5105161231
 C        -7.2054537161        4.4119282966       -2.4290110907
 O        -7.3762973508        4.7629155277       -1.2431029944
 C        -7.3010024693        2.9902676141       -2.8710053045
 C        -7.0284019728        1.9772809468       -1.7720500080
 C        -5.5341079487        1.8635516391       -1.3481543697
 O        -4.6116052371        2.1603572516       -2.0777991066
 C        -5.3333264660        1.0028748285       -0.0122897456
 C        -6.2042119282        1.6756729955        1.0390940923
 O        -7.3894360608        1.3479990853        0.9309811372
 C        -5.6787578594        2.6819381579        2.1082642136
 C        -6.3285204959        4.1441409344        2.0474675341
 C        -7.7461871953        4.2852886941        2.6887203158
 O        -8.1235360178        3.4232175391        3.5125872904
 C        -8.7441739799        5.4034000077        2.3309637935
 C        -9.7094752570        4.7741161312        1.1990736152
 O        -9.7917984151        3.5663908720        1.0622311184
 C       -10.4349868433        5.7616302584        0.3339640098
 C       -11.5154890154        5.1139094164       -0.6103525973
 C       -12.4049885545        4.1689603906        0.1445000960
 O       -13.0118440535        4.5260586084        1.1736453051
 C       -12.6444398860        2.7018080849       -0.5037285842
 C       -12.1394540585        1.7259776161        0.6328246681
 O       -11.0425141426        1.1957629369        0.5574697887
 C       -12.9984647197        1.6570662286        1.8802254088
 C       -12.1908549335        1.4197791622        3.3131104554
 C       -11.5138617074        0.0456648210        3.4199696365
 O       -10.3105272458        0.0240471796        3.2207459696
 C       -12.1989138008       -1.2801373202        3.7626292737
 C       -12.6939108923       -1.9263995260        2.3385913192
 O       -13.8690628682       -1.9522549227        2.0532377418
 C       -11.6212370480       -2.5329674603        1.5063500512
 C       -11.1999910798       -2.1827425432        4.5250905807
 C       -13.4665955027       -1.0574006763        4.6201117436
 C       -14.2208021840        2.4986303370       -0.5952313934
 C       -11.9166639853        2.3451904616       -1.8420259852
 C        -9.6464747031        5.7461613453        3.5304198808
 C        -7.9820345135        6.7141414312        1.8416878991
 C        -5.9201477479       -0.4746589766       -0.3109759815
 C        -3.8842554640        0.8158670755        0.4116030807
 C        -6.5921582676        5.1768191322       -5.0031066849
 C        -6.2201680840        6.7427189417       -2.9220717402
 C       -11.6754079226       10.4774238884       -3.5897285215
 C       -10.6963824548       10.6628012427       -1.3455333207
 H       -11.9222036050        7.9452548625       -0.0447168409
 H       -13.6204902890        8.3406026067       -0.2248565538
 H       -12.4373010705        9.7282743155       -0.1026579740
 H       -10.2205284337        8.9239161927       -4.9482041328
 H       -10.8914842585        7.3120931320       -4.2693872099
 H        -7.8998469321        8.0289703905       -4.3112375474
 H        -8.7707082029        7.1392934241       -5.5643323854
 H        -6.7596065337        2.8518291873       -3.7881098734
 H        -8.3176849929        2.7042686117       -3.1911548165
 H        -7.3351544545        0.9571157610       -2.1616277025
 H        -7.5487615449        2.2379273740       -0.8444839086
 H        -4.6730018609        2.8344820069        1.9997857753
 H        -5.7468050973        2.1881527587        3.1549990771
 H        -6.3863883523        4.4529756599        1.0092055412
 H        -5.5577495176        4.8671939847        2.4180169358
 H        -9.7120700715        6.3942777878       -0.1859978198
 H       -10.9369579598        6.5398643422        0.9980680651
 H       -10.9280258938        4.6966205177       -1.4849946323
 H       -12.0822893955        5.9126018255       -1.0558609930
 H       -13.8274594732        0.9847448209        1.8912371113
 H       -13.3811343538        2.6830365767        2.0607180170
 H       -12.8682669439        1.5597531077        4.1957922592
 H       -11.3937648306        2.1446907289        3.3283002628
 H       -11.9977028369       -3.5791771184        1.2466140158
 H       -10.6200238927       -2.6163032383        1.9678663511
 H       -11.5297502741       -2.0105692148        0.5991685384
 H       -10.3125951308       -2.2748873469        3.9687204674
 H       -11.5959295816       -3.1475308405        4.6066233987
 H       -11.2088552138       -1.8116199225        5.5698599656
 H       -14.2987318095       -0.6583691944        4.0581523313
 H       -13.2360501785       -0.3745135836        5.4082698641
 H       -13.8113222910       -1.9701456622        5.0791405132
 H       -14.5628054667        3.1621104232       -1.3990354738
 H       -14.6939409201        2.6610120759        0.3044653248
 H       -14.4112012512        1.4830528672       -0.8937694859
 H       -12.0488798300        1.3219167894       -2.0716628939
 H       -10.8716847756        2.5747648796       -1.7413921054
 H       -12.3096619144        2.8657243989       -2.7182653338
 H       -10.5540531377        5.1725889524        3.8030088503
 H        -9.9291276191        6.8263772955        3.3970188371
 H        -8.9930608464        5.6845961337        4.3993698714
 H        -7.0807235105        6.8308343111        2.4780709795
 H        -8.6050387194        7.5814374165        1.8848478304
 H        -7.6062653760        6.5329693470        0.8615751123
 H        -5.4294458199       -0.8919277327       -1.1129865216
 H        -6.9592640460       -0.5142810945       -0.4731066616
 H        -5.7095906546       -1.0414069438        0.5561821344
 H        -3.8736455943        0.1110280375        1.3037085190
 H        -3.3812712598        1.7274665068        0.7936169149
 H        -3.2786105038        0.5392304575       -0.4438794909
 H        -6.5365744341        6.1296330127       -5.5014433019
 H        -7.3728088650        4.4571388720       -5.3640168220
 H        -5.5785403010        4.5826183071       -5.1373785951
 H        -6.7938886264        7.3006636847       -2.1407891751
 H        -5.8009832444        7.4790208583       -3.5829404655
 H        -5.4230693970        6.3199846215       -2.3016813351
 H       -10.9690970701       11.1780532351       -4.0159610673
 H       -12.4846216490       11.0669098475       -3.2207592952
 H       -12.1026446026        9.7969675810       -4.3459357021
 H       -10.2892106832       10.1886946851       -0.4789886931
 H       -11.5276725239       11.2420224919       -1.0662448462
 H        -9.7896283008       11.1866847444       -1.5971713000
 Na       -9.1904956853        1.6925084986        2.2465405043
