117

 C       -12.6167030707        8.6102221177       -0.3868449979
 C       -12.2874937383        8.7119248092       -1.8664336799
 O       -12.8703691102        8.0991503992       -2.7167212651
 C       -11.1368730354        9.6519816251       -2.4392643494
 C       -10.0038949020        8.6232516495       -2.8362839147
 O        -9.0577491678        8.4247068377       -2.0724923922
 C       -10.1154449800        7.8967133270       -4.2434335700
 C        -8.8006784872        7.2342342461       -4.5830578203
 C        -8.5988865244        5.9657611251       -3.8146989811
 O        -9.4733302078        5.1743628292       -3.4843862189
 C        -7.1581403813        5.5699527651       -3.5343056814
 C        -7.1965223490        4.3990441962       -2.4281570913
 O        -7.3086001194        4.7364738709       -1.2546726248
 C        -7.2472722369        3.0173088115       -2.8903114499
 C        -7.0351562831        1.9658787964       -1.8147990638
 C        -5.5273143123        1.7506541939       -1.3963024027
 O        -4.5784483071        2.0966531237       -2.0374562230
 C        -5.3121186193        0.9492768652        0.0640885658
 C        -6.2531650530        1.7019130126        1.0703271873
 O        -7.4333140230        1.4215383632        1.1505531434
 C        -5.6591102700        2.7911542686        1.9873743611
 C        -6.4231865694        4.1553271551        1.9447196374
 C        -7.7141725867        4.2221330326        2.7431295068
 O        -8.0062558059        3.3966602764        3.6092561342
 C        -8.6426429056        5.3714512346        2.3469861892
 C        -9.6611829813        4.8021809920        1.1631540254
 O        -9.8863643922        3.6309121132        1.0558588778
 C       -10.4043740973        5.7995211437        0.3669000969
 C       -11.3879576691        5.0938914003       -0.6559102139
 C       -12.4525284029        4.2429042780        0.0060760169
 O       -12.9825634468        4.5173728335        1.0274652176
 C       -12.7710909817        2.7133754530       -0.4574515606
 C       -12.1875339029        1.8163310727        0.7151165887
 O       -11.1940927729        1.1760052400        0.4931114990
 C       -13.0313623255        1.6876173654        1.9620708300
 C       -12.1701098072        1.4613154933        3.2412350079
 C       -11.5049701592        0.0916831088        3.3816996903
 O       -10.2838402266       -0.0390110809        3.3005089025
 C       -12.2772936299       -1.1972846963        3.7914182460
 C       -12.6765444895       -1.9554616312        2.4149071421
 O       -13.8610987725       -2.0019989890        2.1438920073
 C       -11.5225820967       -2.5100247187        1.4972641018
 C       -11.3197267281       -2.1940155778        4.5020654151
 C       -13.5082520678       -1.0075463573        4.6956069121
 C       -14.3130232173        2.4279405224       -0.6253409252
 C       -12.1172413608        2.4313700031       -1.8220897606
 C        -9.6077831212        5.8456743932        3.5206515838
 C        -7.9559165912        6.6070296187        1.7030737797
 C        -5.8614585710       -0.4051305596       -0.1886443129
 C        -3.7543969674        0.9077940657        0.3586595035
 C        -6.6157961110        5.1485606913       -4.9209559953
 C        -6.2728780809        6.6953498975       -2.9656937144
 C       -11.6588402212       10.4425307765       -3.6964200144
 C       -10.4732113189       10.6802227273       -1.4681616062
 H       -11.6919106672        8.2017677730        0.0485182867
 H       -13.3498382803        7.8090891840       -0.2117079333
 H       -12.9059537403        9.6034916572        0.0647224233
 H       -10.4377785870        8.5728372123       -4.9813322074
 H       -10.8560873293        7.1430650718       -4.0713522335
 H        -7.9216211920        7.8823009404       -4.2033901101
 H        -8.5708290120        7.0047246540       -5.6677482658
 H        -6.6987552259        2.8524902124       -3.7725227712
 H        -8.2747876650        2.7914662827       -3.2292824896
 H        -7.5201332650        1.0538023327       -2.1917697303
 H        -7.4271979285        2.2687491217       -0.8751052222
 H        -4.5697262373        2.9625960185        1.8541193248
 H        -5.7461606337        2.4528990866        3.0495587846
 H        -6.4702789458        4.6263991412        0.9354971680
 H        -5.7722943045        4.8734427936        2.4312931455
 H        -9.6978608936        6.4796772310       -0.1288695144
 H       -10.9518087688        6.5031129322        1.0103201114
 H       -10.7673382791        4.6503545824       -1.4768422311
 H       -11.8729983254        5.9421808702       -1.1537553172
 H       -13.6420135158        0.7630847141        1.8919140623
 H       -13.6942499320        2.5304701284        2.1666806950
 H       -12.7159622519        1.5683052647        4.1658065805
 H       -11.3511051910        2.2162855891        3.1997949064
 H       -11.7547624782       -3.5047031613        1.1352679540
 H       -10.5396484801       -2.5210099538        1.8938240968
 H       -11.5335890902       -1.8274835749        0.6277476750
 H       -10.4131338527       -2.2926784749        3.9739721483
 H       -11.7723226211       -3.1515969527        4.5667125165
 H       -11.2625031016       -1.8953876094        5.5442969291
 H       -14.2305769251       -0.3199509516        4.2202552172
 H       -13.1211187126       -0.4483014268        5.5540394121
 H       -14.0407572972       -1.8563564400        5.0027666636
 H       -14.6638721757        2.9002466195       -1.5235288167
 H       -14.9122335867        2.6500668172        0.2493716884
 H       -14.3475087686        1.3317420427       -0.8213004969
 H       -12.4820678863        1.5638250186       -2.3483424910
 H       -11.0387575176        2.4367108448       -1.7147391483
 H       -12.3505968742        3.2774211075       -2.4664682693
 H       -10.5004434961        5.2359609696        3.6864145753
 H        -9.9270999812        6.8850018748        3.3062633302
 H        -9.0645574927        5.8185921047        4.5022711761
 H        -7.1867800583        6.8067599755        2.4406597492
 H        -8.6896607683        7.4963209740        1.5954512319
 H        -7.4388322977        6.4124154114        0.7898443389
 H        -5.1396217753       -0.9936016171       -0.7535849650
 H        -6.8026912459       -0.3966155058       -0.7095652519
 H        -5.9957256529       -0.8915572785        0.7570283677
 H        -3.5618981283        0.2584570997        1.0943814706
 H        -3.4715201152        1.9266586232        0.7800135496
 H        -3.1278331674        0.8839799852       -0.5367341039
 H        -6.3223328300        6.0595964407       -5.4776458821
 H        -7.3020583370        4.4466070274       -5.3941958051
 H        -5.7202618729        4.5395534566       -4.7555789012
 H        -6.5929922315        6.9392723946       -1.9684466775
 H        -6.2312241482        7.6114873453       -3.5123932899
 H        -5.2522606236        6.3308471562       -2.7612816691
 H       -11.0497655869       11.3051590781       -3.8973190839
 H       -12.6161303103       10.8285477396       -3.3824778516
 H       -11.8618752010        9.8746475015       -4.5798134544
 H        -9.8040219285       10.2609021744       -0.7030318113
 H       -11.1674693578       11.3187095938       -1.0124772003
 H        -9.6882796805       11.1706832633       -2.0397021476
 Na       -9.2178262466        1.6585888842        2.1779228479
