117

 C       -12.4655173553        9.1163899164       -0.3966237131
 C       -12.1276822184        8.8745953579       -1.9113055425
 O       -12.8592672493        8.1137767316       -2.5463141616
 C       -10.9754002343        9.6829885685       -2.6321928129
 C        -9.9249494781        8.5877958154       -3.1164548389
 O        -8.8457533374        8.5513500122       -2.5842592030
 C       -10.3892690218        7.6083943664       -4.1937625815
 C        -9.2507895080        6.7356342642       -4.6292720631
 C        -8.7063594362        5.6552735438       -3.6148544371
 O        -9.4612453013        5.1648501514       -2.8087119206
 C        -7.1564012955        5.3022335455       -3.5161436757
 C        -6.9638222879        4.1701374631       -2.5294764094
 O        -6.7680005487        4.3781044583       -1.3414544619
 C        -7.2435131422        2.7024325281       -2.9145145570
 C        -6.9665993661        1.7122418768       -1.7281131817
 C        -5.4662106160        1.6375653063       -1.2946654057
 O        -4.5532558484        2.0988436360       -1.9487190133
 C        -5.0825921928        1.0013798215        0.2079378318
 C        -6.0636402251        1.5996975170        1.2490416645
 O        -7.1791389313        1.1019252139        1.4392851613
 C        -5.5924364632        2.7853309884        1.9843830622
 C        -6.1627133677        4.2880695966        1.7559028075
 C        -7.6129305685        4.3353536215        2.2684890650
 O        -8.0205589557        3.4131714863        2.9267499670
 C        -8.6251014898        5.5122453683        2.0593273497
 C        -9.8138379547        4.8792796365        1.1809681184
 O       -10.3094831629        3.7988158158        1.5305122620
 C       -10.3686655371        5.6581096554        0.0067977672
 C       -11.3301368224        4.7625844731       -0.8743006473
 C       -12.4826437061        4.1886036506       -0.0704509102
 O       -12.9707524917        4.8748607761        0.8466181791
 C       -13.0214155486        2.7099657038       -0.3590915416
 C       -12.3450241663        1.8292921078        0.7831371618
 O       -11.1976823385        1.3510970588        0.6667228612
 C       -13.0795921664        1.6765854893        2.0890016487
 C       -12.2454795731        1.6020393398        3.3238798159
 C       -11.6195333777        0.1973150858        3.4609070809
 O       -10.4172162941        0.0109117108        3.3117962905
 C       -12.4763255673       -1.0526012747        3.8047969320
 C       -12.7459610305       -1.8244008088        2.5239936725
 O       -13.8852699774       -2.1459723798        2.2533829034
 C       -11.6043897466       -2.0125432814        1.5585968823
 C       -11.6619699772       -1.9440508156        4.7931130404
 C       -13.7694531417       -0.6264863849        4.5266166034
 C       -14.6274289568        2.5944642594       -0.2867185544
 C       -12.6580165288        2.1546993007       -1.7515464069
 C        -9.2594863265        5.8678161526        3.4624179865
 C        -8.0059379489        6.7450680406        1.4146388299
 C        -5.4133537177       -0.5380847545        0.0495845000
 C        -3.5367756734        1.2211296741        0.5668480097
 C        -6.6012354757        5.2037052458       -4.9455846513
 C        -6.5344830480        6.5465346767       -2.8299529383
 C       -11.5797882507       10.4536299655       -3.8387857788
 C       -10.1229475496       10.5658913407       -1.7443576514
 H       -12.5391785780       10.2072199813       -0.1643192041
 H       -11.5851677372        8.7855948925        0.2364180689
 H       -13.3976796186        8.6081244165       -0.1531051393
 H       -10.6220366464        8.2083184008       -5.0130219795
 H       -11.2847201619        7.1011212602       -3.9360256017
 H        -8.3721589963        7.3829884909       -4.8949216983
 H        -9.5912598610        6.2964084514       -5.6729650551
 H        -6.7259114739        2.3724270144       -3.8350790405
 H        -8.2862282516        2.6863557641       -3.1143821786
 H        -7.1943542138        0.6730151434       -1.9099832649
 H        -7.6070422496        1.9932810142       -0.8795663502
 H        -4.4798646529        2.8295633105        1.7388115340
 H        -5.7507935632        2.5424073163        3.0412443212
 H        -6.0541742132        4.4939428731        0.6844111837
 H        -5.5708242323        5.0952211675        2.1942194755
 H        -9.4668252338        5.9767302463       -0.5809560853
 H       -10.8115133863        6.5936393969        0.3469607406
 H       -10.7286488969        3.9894909780       -1.3095626023
 H       -11.8811968455        5.3303810088       -1.6934153888
 H       -13.6486594203        0.7255834237        1.8933092375
 H       -13.8834819630        2.3800019912        2.2777282313
 H       -12.7979847570        1.8474433472        4.2229068978
 H       -11.4243519465        2.3478408564        3.3236242505
 H       -11.7954388632       -2.7963263960        0.8696455154
 H       -10.6087105431       -2.1964271669        1.9747571532
 H       -11.5177521826       -1.0353529271        1.0413012424
 H       -10.7285559424       -2.2491704293        4.3385582539
 H       -12.2613828009       -2.7937674022        4.9925612516
 H       -11.2825462654       -1.5041667932        5.6579472469
 H       -14.5449374223       -0.2910247823        3.8977869604
 H       -13.5587209103        0.1632884113        5.2113744180
 H       -14.1786858314       -1.4692881269        5.1127201637
 H       -15.1051660259        3.1715449402       -1.0576027874
 H       -14.9954184508        2.9910253835        0.6718354674
 H       -14.8777344924        1.5882602949       -0.4736857568
 H       -13.0327549595        1.1320856143       -1.8075854477
 H       -11.6396147134        2.1686341609       -2.0557358958
 H       -13.1497329546        2.8018435460       -2.4269565503
 H        -9.4664689916        4.9091990348        4.0201897880
 H       -10.2559606817        6.2628012491        3.1926577791
 H        -8.7949230451        6.6600063635        4.0873922691
 H        -7.2267531986        7.1632064921        2.0632115280
 H        -8.7347728798        7.4320047996        1.0996625908
 H        -7.6313427717        6.4180612008        0.4145727272
 H        -5.3439300033       -0.7731984131       -0.9711358068
 H        -6.4118237562       -0.6818649109        0.3420972578
 H        -4.7655989308       -1.2130058474        0.5351830675
 H        -3.4043897546        0.8834191776        1.6625065555
 H        -3.1952255662        2.1554050183        0.3444657611
 H        -3.0394285709        0.5209747945       -0.0671670985
 H        -6.6749379046        6.2049069279       -5.4178648393
 H        -7.1202068621        4.4352185939       -5.6087752980
 H        -5.5207405238        4.9227642556       -4.8794274168
 H        -7.0796194935        6.9983448522       -1.9916519997
 H        -6.3470636653        7.3154848833       -3.6127704057
 H        -5.5485658487        6.3212003292       -2.4556752002
 H       -10.9099335238       10.3119330599       -4.6670696465
 H       -11.7245826102       11.5082869251       -3.6229411001
 H       -12.5257579513       10.0278017858       -4.0918070264
 H        -9.7826151539        9.9250789732       -0.9642653532
 H       -10.5114292111       11.5290448694       -1.3157718666
 H        -9.3607975794       10.9301849096       -2.3891620556
 Na       -9.2031475129        1.5806808990        2.1727477943
