117

 C       -12.5853165458        9.6855893174       -0.6260168654
 C       -12.0372614490        9.0386814321       -1.9289452692
 O       -12.6002435233        8.0005089966       -2.2783520188
 C       -10.8572736498        9.6455239353       -2.8078764999
 C        -9.8865244993        8.4402801479       -3.1878990334
 O        -8.7658778143        8.3530558117       -2.7699598333
 C       -10.3433477091        7.3572650006       -4.1694266251
 C        -9.2304230725        6.4885008872       -4.6477181968
 C        -8.7374353241        5.5443172693       -3.5432870484
 O        -9.4981325008        4.9096760108       -2.8499092755
 C        -7.1585061678        5.2184873664       -3.4340487189
 C        -6.8605970893        4.1470704781       -2.3440955348
 O        -6.4922376007        4.3910559602       -1.2206487484
 C        -7.0745394115        2.7676520548       -2.9060353153
 C        -6.7701278294        1.7386929232       -1.8338865553
 C        -5.3456802019        1.8472383066       -1.2905571556
 O        -4.4448272296        2.3025334267       -1.9745069762
 C        -4.9692693707        1.0901751982        0.1215109074
 C        -5.9330811075        1.6493139233        1.2257207667
 O        -7.1022481207        1.2571850473        1.2244026207
 C        -5.4269599395        2.8036768540        2.1662190786
 C        -6.2833145645        4.1156086550        1.7532458764
 C        -7.7184597282        4.2123439893        2.3310937661
 O        -8.1499496404        3.3959803372        3.1261665979
 C        -8.5815398803        5.4548065751        1.9704257448
 C        -9.8865393842        4.8742629857        1.2547242078
 O       -10.4074611780        3.8517072264        1.6871491263
 C       -10.4662846133        5.5197533773        0.0102193900
 C       -11.3495538443        4.5393618927       -0.7736279961
 C       -12.6104452067        4.0534003681       -0.0053713845
 O       -13.2236634193        4.7625815985        0.8131603672
 C       -13.1938681145        2.5947961245       -0.2221813081
 C       -12.4013137156        1.9984639325        1.0008412935
 O       -11.3249319937        1.4617189300        0.7028244030
 C       -13.0866421883        2.0895521325        2.3105679571
 C       -12.2396511575        1.7529626441        3.5297805703
 C       -11.7046281926        0.3036999346        3.6790620535
 O       -10.4815699748        0.1402250315        3.4621666491
 C       -12.5580702097       -0.9055037101        3.9451522338
 C       -12.8378092286       -1.7421811046        2.5148936204
 O       -13.9656373890       -2.0926493880        2.2759102872
 C       -11.6719797197       -2.0411867102        1.6142208128
 C       -11.8221801528       -1.9313525545        4.8263890667
 C       -13.9464524848       -0.6549376692        4.5391566785
 C       -14.7966253913        2.6863713725       -0.1481929056
 C       -12.8171141279        2.0293919256       -1.5773298383
 C        -9.1440037009        6.1397574148        3.2689129030
 C        -7.8739539096        6.4193921799        0.9766619490
 C        -5.3732584608       -0.4259322276       -0.1317529366
 C        -3.3945818994        1.2096971989        0.2703101633
 C        -6.6015694523        4.6993667373       -4.8758624739
 C        -6.3781182217        6.5197184523       -3.0425955695
 C       -11.3726873792       10.3226550765       -4.0645705924
 C       -10.0503688068       10.7107453671       -1.9766306290
 H       -13.2936699567       10.4647654123       -0.7804997566
 H       -11.8331674734       10.0109502130        0.0960571823
 H       -13.1371430379        8.8786402636       -0.2165225735
 H       -10.8098610126        7.8873497657       -5.0317188925
 H       -11.2362973244        6.7890706096       -3.6739218500
 H        -8.4862357614        7.0613706997       -5.1053778178
 H        -9.6054127254        5.8268122919       -5.4024126483
 H        -6.3338621509        2.5285907947       -3.6790135036
 H        -8.1159149845        2.6636603181       -3.3066582755
 H        -6.9800205282        0.6967845399       -2.2184305266
 H        -7.4343772069        1.7255172149       -0.9382352565
 H        -4.3396859412        3.0748279099        1.8937359380
 H        -5.5928107427        2.5466760979        3.1672815306
 H        -6.5127065462        4.0496263143        0.6466233197
 H        -5.6513548855        4.9825773062        1.7847505671
 H        -9.6326073337        5.8399613198       -0.6666647606
 H       -11.0126136260        6.4282217866        0.3594627278
 H       -10.7122378686        3.6966853537       -0.9905148998
 H       -11.6676819677        5.0450459733       -1.7333886077
 H       -13.9731030983        1.4143547959        2.2709670689
 H       -13.5692561373        3.0543422870        2.4095796925
 H       -12.8557803040        1.9083373968        4.4021300218
 H       -11.3531660070        2.3782115755        3.8207168473
 H       -12.0246436872       -2.3309736451        0.6640136561
 H       -10.9792505508       -2.8257453658        1.9092018149
 H       -11.0822611345       -1.0637466840        1.5098471040
 H       -10.7083957311       -2.0122947792        4.6758170308
 H       -12.3086848916       -2.9611254385        4.7787892697
 H       -11.7595210047       -1.5813901599        5.8300754202
 H       -14.4296281589        0.2647339225        4.1854982628
 H       -13.8156700128       -0.5301759350        5.6312179529
 H       -14.6137224829       -1.5207904037        4.4506121265
 H       -15.2082551901        2.8420766978       -1.1151723163
 H       -15.1805869298        3.5408763422        0.4987228086
 H       -15.1251105086        1.7070204841        0.2025415655
 H       -13.6606344817        1.3713199276       -1.9096123775
 H       -11.9570424147        1.3384765093       -1.5572697175
 H       -12.6352082375        2.8325366224       -2.2938851587
 H       -10.0005594774        5.6051219020        3.5986363015
 H        -9.3121800650        7.1695499296        3.1739651884
 H        -8.3932367806        6.0874350368        4.0486560155
 H        -7.0297583093        6.7489161546        1.5206947398
 H        -8.4131696725        7.3457783060        0.7196008557
 H        -7.5634619167        5.9148137290        0.0465718875
 H        -4.5608761803       -0.9653395637       -0.7067606229
 H        -6.3748427250       -0.6023911009       -0.5919885332
 H        -5.3951025506       -0.8890291417        0.8797072163
 H        -3.0648248315        0.3866578789        0.9897998737
 H        -3.1722097850        2.1712275520        0.5495140381
 H        -2.9515270292        0.8320716188       -0.6731757863
 H        -6.6580417991        5.5238230807       -5.6171784642
 H        -7.2309186668        3.9774329337       -5.3817772675
 H        -5.5815659559        4.4464882556       -4.8054561733
 H        -6.5343691981        6.7017739622       -2.0010874780
 H        -6.5600538603        7.4716720345       -3.5575311193
 H        -5.3202139095        6.3494557648       -3.2527785522
 H       -10.8591927782       11.2836109532       -4.2317991757
 H       -12.4411600583       10.5194422627       -3.8184167812
 H       -11.2944272921        9.7295465927       -4.9604229572
 H        -9.6073258325       10.1821325563       -1.1601827379
 H       -10.6871279915       11.5340891338       -1.6013927972
 H        -9.4634014744       11.2834472521       -2.6409399779
 Na       -9.3801422242        1.7135329434        2.0680108699
