117

 C       -12.5870969747        9.8610029779       -0.7810874524
 C       -12.0592724420        8.9965009238       -1.9353511218
 O       -12.4659276163        7.8885402175       -2.2279530221
 C       -10.8716549879        9.6310120553       -2.8132288184
 C        -9.8809498332        8.4778209983       -3.2004569472
 O        -8.8002107539        8.4435653786       -2.6569215538
 C       -10.3176797127        7.4037208461       -4.2634773140
 C        -9.2553350566        6.3917630935       -4.6049742558
 C        -8.6283617851        5.3969625978       -3.5791417872
 O        -9.3339350263        4.7218404991       -2.8078220192
 C        -7.0969934014        5.2510644071       -3.5113975639
 C        -6.8572073145        4.1453422867       -2.4553831371
 O        -6.5191637050        4.4989520591       -1.3108604354
 C        -7.0090840739        2.6815933137       -2.8673956617
 C        -6.7404981785        1.6087538383       -1.7998234592
 C        -5.3071835924        1.7925435284       -1.3093909204
 O        -4.4678610922        2.4092251295       -1.9311229099
 C        -4.9966191099        1.0448636557        0.0230617182
 C        -5.8885481362        1.6584778543        1.1249086058
 O        -7.0623250709        1.2782565117        1.1598310442
 C        -5.4940497023        2.7130164726        2.1254991348
 C        -6.2483828129        4.1227691551        1.8499909969
 C        -7.6747263108        4.1692424586        2.4254685045
 O        -8.1248180108        3.4063486280        3.2372104729
 C        -8.5610666934        5.4149811394        1.9774552719
 C        -9.9266323444        4.8144638057        1.2394574854
 O       -10.4608944693        3.8356655621        1.7498197017
 C       -10.6185741396        5.5439312960        0.1097284958
 C       -11.4359538859        4.5191898037       -0.7783041709
 C       -12.6873843869        4.1601723678       -0.0584822645
 O       -13.2159737598        4.8960955218        0.7508989401
 C       -13.2064695261        2.6404740694       -0.2173297188
 C       -12.5161000864        1.8964496411        1.0167036315
 O       -11.4276231829        1.3763432393        0.8239867975
 C       -13.1269909684        2.0604372124        2.3861382901
 C       -12.2553972999        1.7634751330        3.6382475382
 C       -11.6698525156        0.2918124101        3.6433770110
 O       -10.4552516913        0.1574932624        3.4617829384
 C       -12.6194342217       -0.9297606487        3.9728794407
 C       -12.8744066926       -1.6292497122        2.5266112084
 O       -13.9849187869       -2.0328693169        2.2520577229
 C       -11.6796193300       -2.0226932411        1.6520329982
 C       -11.8236360936       -1.9341138457        4.8644593498
 C       -13.9975161392       -0.5876514465        4.5539575627
 C       -14.7535137512        2.6791063217       -0.0591785327
 C       -12.8787647660        1.8646723710       -1.5055450730
 C        -9.0122689812        6.2285134019        3.1921275093
 C        -7.8312292904        6.3224326219        0.9261246368
 C        -5.3036860602       -0.4444943794       -0.0646448612
 C        -3.5496947262        1.2978994548        0.2964573360
 C        -6.5942682339        4.7685830623       -4.9108430650
 C        -6.3560414596        6.5693578359       -3.2364853631
 C       -11.4099299798       10.3467804170       -4.1666575548
 C        -9.9458585834       10.6507636855       -2.0421277872
 H       -13.1007692023       10.7684347813       -1.1127619146
 H       -11.6876387688       10.1207320749       -0.1986324711
 H       -13.2490386446        9.3266833834       -0.1300905012
 H       -10.6569742699        7.8819684451       -5.1749201271
 H       -11.2308356268        6.9804897229       -3.8184780526
 H        -8.4557061599        6.9656271374       -5.1055651962
 H        -9.6853111718        5.7136289241       -5.4291606505
 H        -6.2821561968        2.3874637070       -3.6548499699
 H        -8.0057234179        2.5386193332       -3.1977508335
 H        -6.8576659802        0.6250993766       -2.2660081655
 H        -7.4608117141        1.4628219630       -0.9497977846
 H        -4.4628083446        2.9641110409        1.9719913577
 H        -5.7374340497        2.3839406573        3.1735882817
 H        -6.4164921432        4.3212760056        0.8000554032
 H        -5.5164641767        4.8837465186        2.1513725680
 H        -9.8605086823        6.0802269371       -0.5330773227
 H       -11.2994169107        6.2727920872        0.5939965310
 H       -10.8439940589        3.6587484533       -1.0595355989
 H       -11.7621436179        5.1142295858       -1.6823923921
 H       -14.1528637457        1.6603899088        2.4774278593
 H       -13.3336255724        3.1244288099        2.3842301943
 H       -12.7498220385        1.9995731435        4.5907837748
 H       -11.3452580291        2.3485178764        3.7418506771
 H       -12.0497886916       -2.3331387031        0.6418847162
 H       -11.1759786475       -2.9423714104        2.0428319697
 H       -10.9248537279       -1.2672738662        1.5429395807
 H       -10.7823620736       -2.0531789181        4.5467744692
 H       -12.2959602603       -2.8964392094        4.7890294966
 H       -11.6686373449       -1.6610586344        5.9084941834
 H       -14.3910966661        0.3027274135        4.1329471337
 H       -13.8669435557       -0.4067247611        5.6089002528
 H       -14.7380386635       -1.4232217358        4.5145222908
 H       -15.2425323588        3.0586804103       -0.9578456553
 H       -15.0402881549        3.3224381397        0.7698435885
 H       -15.0371047210        1.6825937120        0.1233906047
 H       -13.7231404220        1.2036153429       -1.7583954818
 H       -12.0014072968        1.2325650232       -1.4876661737
 H       -12.7884059592        2.5993300238       -2.3055082723
 H        -9.8891227894        5.7681536670        3.6605106115
 H        -9.2414709097        7.2159088375        2.8216180831
 H        -8.2742881481        6.3885908077        3.9378809705
 H        -6.8674507208        6.6030171532        1.3502444655
 H        -8.2279487466        7.2398001284        0.7074541513
 H        -7.6766440648        5.7099353004        0.0452422907
 H        -4.6284929728       -0.9238869866       -0.7172816520
 H        -6.3054002735       -0.5708563922       -0.4372517282
 H        -5.2584533217       -0.9175065335        0.9128203053
 H        -3.3149377345        0.6579782877        1.1767491225
 H        -3.4188736676        2.3554435529        0.4257297679
 H        -3.0096489123        0.8127088513       -0.4499045925
 H        -6.6769291408        5.5155841737       -5.6875859210
 H        -7.2674038211        3.9931631651       -5.3473399101
 H        -5.4571158891        4.5123410466       -4.8626597244
 H        -6.4398231106        6.8294148897       -2.1664093641
 H        -6.7836900191        7.4446077895       -3.7621066005
 H        -5.3594282680        6.5566698128       -3.6264394276
 H       -10.9351816474       11.3278131561       -4.3297878615
 H       -12.5028791267       10.4545383119       -4.1003263018
 H       -11.1517352392        9.7151094305       -5.0341895317
 H        -9.4054125812       10.1393232039       -1.2847608364
 H       -10.4492340900       11.5691388357       -1.6728744108
 H        -9.3611309711       11.0821188015       -2.8260324615
 Na       -9.4008355337        1.7795924716        2.0893123804
