117

 C       -12.6327061385       10.1398734558       -1.2032564283
 C       -11.9009587683        9.0550343502       -2.0729421107
 O       -12.1426633715        7.8634093557       -2.0379495547
 C       -10.7217245425        9.6380631622       -2.9801077322
 C        -9.7433171644        8.3765651507       -3.2603772029
 O        -8.7353016096        8.1815147332       -2.6134456665
 C       -10.2676086632        7.2419949744       -4.1441051970
 C        -9.2209793645        6.2869133168       -4.7510223097
 C        -8.5666114201        5.3746636192       -3.7047957254
 O        -9.2049493305        4.7149389412       -2.9342027805
 C        -7.0048221943        5.2097974428       -3.7770249944
 C        -6.6830013001        4.1120399537       -2.6559807257
 O        -6.5381984495        4.3944238015       -1.5083282743
 C        -6.9478510126        2.6972513273       -3.0755484418
 C        -6.7108398134        1.6874451914       -1.9504546828
 C        -5.3923258647        1.8707181443       -1.2440153719
 O        -4.4686837630        2.4750345881       -1.7786200134
 C        -5.1208802697        1.0401724407        0.1593899759
 C        -6.1055804613        1.5534324357        1.1560485505
 O        -7.2656881732        1.2639133053        0.9264536292
 C        -5.6177256887        2.6286148311        2.2616241958
 C        -6.1485677418        4.0684356502        2.0511180705
 C        -7.6156999946        4.2752074687        2.4339797578
 O        -8.0707069821        3.4780730842        3.2906728128
 C        -8.5283860654        5.3632103832        1.7988610083
 C        -9.9157251544        4.8115622617        1.3588910420
 O       -10.4701647209        3.8266186732        1.8114186756
 C       -10.6448240211        5.5582755886        0.2105319785
 C       -11.4595998343        4.6081889587       -0.7020636428
 C       -12.7545999183        4.0726906998        0.0086716202
 O       -13.4936509944        4.8832749012        0.5677644180
 C       -13.2677168450        2.6918552154        0.0549951268
 C       -12.6186250116        1.8728354237        1.2110503457
 O       -11.6352494433        1.1567899575        1.0342245473
 C       -13.2293555847        2.1107241716        2.6000521260
 C       -12.2794692918        1.7748365521        3.6536086741
 C       -11.6624892682        0.3825200959        3.6612242671
 O       -10.4859816527        0.1715313487        3.3767433120
 C       -12.6199099980       -0.8909877214        3.9331763503
 C       -12.8966858570       -1.5662608108        2.5167068150
 O       -14.0545836735       -1.7327552062        2.1806549640
 C       -11.7167358997       -2.0811963879        1.7289349406
 C       -11.8267538620       -1.9131223875        4.8484542177
 C       -13.9481276233       -0.4365077274        4.6724018687
 C       -14.7947104726        2.6217495603        0.1447250007
 C       -12.8871013161        1.9772321200       -1.2929048575
 C        -8.8800165233        6.2567637492        3.0588643229
 C        -7.7342270614        6.1867681057        0.7539292397
 C        -5.1418262949       -0.4667791948        0.0580500766
 C        -3.6157662516        1.3685270890        0.5684840750
 C        -6.6076481736        4.7798881498       -5.2290533816
 C        -6.3186609602        6.5797519288       -3.3387716938
 C       -11.5882104748       10.2431547694       -4.1395002358
 C       -10.0007220070       10.7925660397       -2.1656371363
 H       -12.6600609259       11.0666398014       -1.8133301437
 H       -12.1936351988       10.3155853264       -0.1947415769
 H       -13.7061432483        9.9150361737       -0.9902438273
 H       -10.8289574472        7.7066337903       -4.9359198798
 H       -11.0086777665        6.6972674256       -3.5789759407
 H        -8.4633008439        6.8509535642       -5.3327984552
 H        -9.7520354931        5.6207826324       -5.4380159761
 H        -6.2552762924        2.4889249689       -3.8460942515
 H        -8.0171497936        2.5490852129       -3.3522025284
 H        -6.6740146477        0.6660703261       -2.3305150396
 H        -7.5397656626        1.5874085302       -1.3082488989
 H        -4.4839366107        2.6934379859        2.3527211658
 H        -6.0247502768        2.2960150880        3.1865995684
 H        -6.0136642137        4.4944355794        1.0139739408
 H        -5.5664709256        4.7832290654        2.6756681791
 H        -9.9602305898        6.0171660501       -0.4507823377
 H       -11.3111958535        6.3012965983        0.6591769413
 H       -10.8777984552        3.6895745170       -0.9168242484
 H       -11.6389599812        5.1948055254       -1.5804028538
 H       -14.1330143989        1.4971240326        2.6459829712
 H       -13.6388010595        3.1342648455        2.7678420667
 H       -12.7190027857        1.7888164996        4.6397428256
 H       -11.4370304222        2.4675820417        3.7650897553
 H       -11.9388861921       -2.3859574775        0.7530839787
 H       -11.3661126653       -2.9423054421        2.2591364985
 H       -10.8400894137       -1.3710905039        1.6949631518
 H       -10.9076458904       -2.3239103893        4.4269651483
 H       -12.3493141510       -2.8438599575        5.1444793188
 H       -11.5926898046       -1.4368657181        5.7751250238
 H       -14.6520571208       -0.0733558892        3.9173627142
 H       -13.8931541461        0.2160775242        5.5421752439
 H       -14.3654499353       -1.3231906261        5.0409145227
 H       -15.1046205658        3.3154034259       -0.5894167607
 H       -15.1412509190        2.9485525428        1.1506599614
 H       -15.2054195465        1.6103330217       -0.0027658527
 H       -13.0937964582        0.9285575254       -1.2004328571
 H       -11.8338496585        2.0718768740       -1.5180037030
 H       -13.4607426033        2.3330231248       -2.1297730582
 H        -8.9496431460        5.5779355843        3.9177934136
 H        -9.8338610558        6.8130113427        2.9333886252
 H        -8.0734585630        7.0295837905        3.2755123187
 H        -6.9116819051        6.7820623196        1.0643839535
 H        -8.4802564099        7.0308332657        0.5452640006
 H        -7.5295514147        5.5970303456       -0.1577436168
 H        -4.8133865032       -0.7494903429       -0.9390909982
 H        -6.1082097119       -0.8814361715        0.1831129603
 H        -4.5350664405       -0.8732160219        0.8143652126
 H        -3.4307633458        1.3150709634        1.6539446123
 H        -3.4093718102        2.2933154547        0.1158099772
 H        -3.0854551554        0.5067774047        0.1089933642
 H        -6.7859748755        5.6620464493       -5.9090752553
 H        -7.2103882817        4.0049490254       -5.6902096351
 H        -5.6014211092        4.6346159015       -5.3188002652
 H        -6.5835348511        6.8339275302       -2.3437371973
 H        -6.6864181574        7.4064724382       -3.9352261475
 H        -5.2443601381        6.6312234037       -3.5941340069
 H       -11.2048750062       11.2351188893       -4.3064853146
 H       -12.6547943767       10.2926471340       -3.9727376907
 H       -11.3531272009        9.7110593256       -5.0288727005
 H        -9.9158211519       10.4205532858       -1.1161793179
 H       -10.5614894890       11.7209769453       -2.2420781329
 H        -8.9579228515       10.9516415106       -2.5513935289
 Na       -9.3034716246        1.7079515334        2.2626879509
