117

 C       -12.8942557557       10.1354498936       -1.5169571387
 C       -11.8860555027        9.0975115221       -1.9654009516
 O       -11.9495787689        7.9381744077       -1.6288233547
 C       -10.6742877244        9.5346302128       -3.0157536796
 C        -9.8534713107        8.2581830076       -3.2098106745
 O        -8.7191155465        8.2057859536       -2.7464323674
 C       -10.3780984592        7.1508999722       -4.0958380146
 C        -9.2139956037        6.4894438515       -4.8308502881
 C        -8.5626377060        5.4912566899       -3.8375833271
 O        -9.3494051352        4.9202092817       -3.0823461925
 C        -7.0075371167        5.1821444137       -3.9583028842
 C        -6.7174464762        4.0256155081       -2.8819272805
 O        -6.3900415849        4.3322644557       -1.7379348406
 C        -6.6333240155        2.5224445668       -3.2651499764
 C        -6.5763220439        1.6444983745       -1.9797839030
 C        -5.2669081285        1.8135287282       -1.2571871521
 O        -4.3846480353        2.4937717125       -1.6773442075
 C        -5.1070303971        1.1590004963        0.2426936832
 C        -6.2069295788        1.5732335081        1.2879664198
 O        -7.3913628727        1.3465540734        0.9851601512
 C        -5.9013051283        2.4945820553        2.4329335767
 C        -6.2368728722        3.9105158359        1.9930280553
 C        -7.6491814580        4.2247164994        2.4544733431
 O        -8.1810755765        3.5342237352        3.2644367626
 C        -8.5039196432        5.4302828450        1.7803183076
 C        -9.8477544798        4.8343028129        1.3404438082
 O       -10.2299024179        3.7456043294        1.7581882079
 C       -10.6733068443        5.5259033071        0.2468874958
 C       -11.5431685794        4.5252970481       -0.4865085378
 C       -12.9598315091        4.1954549925        0.1081925958
 O       -13.6521316828        4.9905984445        0.6379944927
 C       -13.3580486829        2.6630791733        0.0761065542
 C       -12.6052453184        1.9566890285        1.2889423532
 O       -11.6656793224        1.2052313313        1.1596031349
 C       -13.1884589997        2.1334325517        2.7099576395
 C       -12.1787698031        1.8450417811        3.8599399274
 C       -11.6661834192        0.3348816877        3.7293925927
 O       -10.4823832509        0.1129748505        3.5199079446
 C       -12.6016542683       -0.8884338959        4.0212974889
 C       -12.9511294466       -1.4561868552        2.5290388561
 O       -14.0671418941       -1.2729372874        2.1393117060
 C       -11.8278904330       -2.2360566398        1.8201582166
 C       -11.7304691323       -1.8339814281        4.8516998523
 C       -13.9565195357       -0.5348714292        4.7279669526
 C       -14.9232958729        2.5111648636        0.1854836467
 C       -12.8989123227        1.9405067550       -1.1394760536
 C        -8.8495660380        6.3784297724        2.9619765707
 C        -7.7345678019        6.2439208910        0.6893185480
 C        -5.4000872416       -0.3872527601       -0.0562962646
 C        -3.6709254047        1.4520343305        0.6806396157
 C        -6.5016991561        4.7662337787       -5.3380484959
 C        -6.2481605319        6.3860040733       -3.4297873836
 C       -11.2112495426       10.0104883253       -4.4384252896
 C        -9.7747899274       10.6251232874       -2.4716650051
 H       -12.7175951595       11.1385834070       -1.8722471103
 H       -12.8629512931       10.0751731779       -0.4536396641
 H       -13.9169983881        9.8647714734       -1.7010236816
 H       -11.2145250612        7.5204619683       -4.7712237540
 H       -10.8991252678        6.3605817685       -3.4609067521
 H        -8.4687806505        7.1946574122       -5.1536207174
 H        -9.6220732646        5.9165952361       -5.6333331289
 H        -5.6363185229        2.4061189099       -3.7978237418
 H        -7.4963116628        2.1805380244       -3.8045602040
 H        -6.7979263780        0.5644654403       -2.1273870236
 H        -7.4412468806        1.9136397472       -1.2839492080
 H        -4.8937549921        2.4772577999        2.6735860831
 H        -6.4705271570        2.1092997586        3.3438346523
 H        -6.0344798855        4.0945334248        0.9582347880
 H        -5.7454390226        4.7802360329        2.4931547835
 H        -9.8994640676        5.8532570065       -0.5012673122
 H       -11.2483471919        6.3812197857        0.6502494038
 H       -10.9581292157        3.6090297451       -0.6766493794
 H       -11.7969567310        5.0341001017       -1.4535181927
 H       -14.1114217768        1.5304296791        2.7191777007
 H       -13.5699547619        3.1413860975        2.8196605389
 H       -12.5878570657        1.9313343921        4.8993832512
 H       -11.2612912434        2.4409330479        3.8471091907
 H       -12.1378549049       -2.5116083602        0.7713301931
 H       -11.5098857302       -3.1260864246        2.3900702640
 H       -10.9828774034       -1.6464941463        1.6973044822
 H       -10.8242961715       -2.1327432963        4.3098824982
 H       -12.1900864866       -2.8242688717        4.9679039532
 H       -11.6002500151       -1.5722196512        5.9578441345
 H       -14.7432937154       -0.2873645010        4.0061570567
 H       -13.7682157050        0.3157175611        5.3919995554
 H       -14.3342198634       -1.3624043932        5.3996787809
 H       -15.4242760034        2.8603526791       -0.7725312538
 H       -15.2360690118        3.0734060253        1.0403313950
 H       -15.1930069625        1.4858772674        0.4695511847
 H       -12.8637356806        0.8435727784       -1.0787640549
 H       -11.8957312232        2.2871623986       -1.4124863655
 H       -13.5673863058        2.1379198860       -2.0035771158
 H        -8.9207418240        5.8940577988        3.9323050264
 H        -9.8211632142        6.7945965759        2.7180566541
 H        -8.1454522555        7.1584062968        3.0261595425
 H        -6.6921990071        6.4271900751        1.1084683084
 H        -8.1317486493        7.2163926434        0.4718897007
 H        -7.5546674630        5.6441774127       -0.1952052948
 H        -4.8729510625       -0.7815338250       -0.9559167211
 H        -6.5127411956       -0.4783306418       -0.2898777105
 H        -5.2329436550       -1.0492108585        0.8622841647
 H        -3.3996562353        0.6908062704        1.3517187010
 H        -3.7577373016        2.4845960868        1.2245545092
 H        -3.0519927469        1.5747970846       -0.2053095734
 H        -6.5549876248        5.5195144925       -6.0655333856
 H        -7.0313318344        3.8627037103       -5.6141136048
 H        -5.4118470527        4.4495965830       -5.3614298129
 H        -6.6542071627        6.7387743802       -2.4676365417
 H        -6.2227180437        7.2262791945       -4.1077028139
 H        -5.2272116304        6.0849568036       -3.3147348922
 H       -10.7512262740       10.9229348793       -4.8073259118
 H       -12.2418063034       10.2598255090       -4.2214740804
 H       -11.1938973010        9.2727518278       -5.2594850370
 H        -9.4194949019       10.3439320752       -1.4752194031
 H       -10.3538180954       11.5620167200       -2.4452726762
 H        -8.8259346456       10.6477738390       -3.0279817156
 Na       -9.2833040048        1.7031597373        2.3382926890
