117

 C       -12.9303884973       10.1995603084       -1.9460771539
 C       -11.7490683524        9.1964136815       -2.1031299239
 O       -11.6710455833        8.2228547532       -1.3587451071
 C       -10.6877900610        9.4886945048       -3.1594886098
 C        -9.8330565318        8.1849087986       -3.3703241955
 O        -8.7699347115        8.1472076306       -2.8123938998
 C       -10.2935662111        6.9863796939       -4.2676318498
 C        -9.0700808566        6.2878300209       -4.8785980024
 C        -8.4790975800        5.3391697804       -3.8894411656
 O        -9.0974430553        4.6862609280       -3.0453973308
 C        -6.9458660712        5.0878694881       -4.0306561442
 C        -6.6581004279        4.0376098122       -2.8948898968
 O        -6.5474667679        4.3269521871       -1.7128545555
 C        -6.5024213717        2.5716763141       -3.3498767912
 C        -6.4762226649        1.6113433736       -2.1202900206
 C        -5.1852735981        1.7702621105       -1.2379702284
 O        -4.2690113657        2.4699251575       -1.6209427948
 C        -5.1504936187        1.1200239492        0.2197422756
 C        -6.3584838987        1.5781968860        1.1638873481
 O        -7.5015209997        1.2027301223        1.0338414915
 C        -6.0639275078        2.4929640491        2.3846406000
 C        -6.2971287726        3.9833790343        2.0919343077
 C        -7.8053286933        4.3806512772        2.5209030143
 O        -8.2667932496        3.7429647831        3.4885914856
 C        -8.5334842017        5.5097542451        1.8053571122
 C        -9.9216724858        4.8858946026        1.2275344064
 O       -10.2179487928        3.7704477635        1.5476817453
 C       -10.8266263063        5.5849812901        0.2578632584
 C       -11.6944751102        4.5653213047       -0.5926915630
 C       -12.9579848394        4.1142026729        0.1300617002
 O       -13.5322092247        4.9411439155        0.8356343430
 C       -13.4015090658        2.5302204863        0.1089257251
 C       -12.5820066805        1.9480399008        1.3411503076
 O       -11.4365262816        1.5172294582        1.2137930774
 C       -13.1270199288        2.2040074618        2.7510243625
 C       -12.1835293130        1.8567236985        3.9237412480
 C       -11.6443951891        0.3384105684        3.8886514472
 O       -10.4429807433        0.1383005189        3.6746838766
 C       -12.5783666678       -0.8932510943        4.1083271822
 C       -12.9708292147       -1.3544688382        2.6236604386
 O       -13.9071338289       -0.7754658732        2.1066865691
 C       -11.9873863410       -2.3492155741        1.9167751239
 C       -11.8407073591       -2.0384748044        4.8375394522
 C       -13.8486394735       -0.5199312657        4.9420924519
 C       -14.9574701914        2.5118967843        0.4377184607
 C       -13.0412048897        1.8126796358       -1.2155745375
 C        -8.9039392922        6.5590741982        2.8820153109
 C        -7.6719718041        6.1231902081        0.7234499456
 C        -5.4085524713       -0.3701315518       -0.0829882213
 C        -3.7026990619        1.1845171759        0.7537197709
 C        -6.6242313372        4.6362098590       -5.4895851514
 C        -6.2163725936        6.4479137138       -3.6569530630
 C       -11.2766981267       10.0972934284       -4.4159868755
 C        -9.8359510720       10.5977449080       -2.3265264921
 H       -12.7089585803       11.2126973858       -2.2705867711
 H       -13.4827261796       10.1367669881       -0.9775347044
 H       -13.7112665365        9.8716314231       -2.6377626527
 H       -11.0017132245        7.2469300483       -4.9823821164
 H       -10.7896047962        6.3164265604       -3.6303143043
 H        -8.3079367433        7.0273489241       -5.2732510176
 H        -9.4955193592        5.5876600753       -5.6945415600
 H        -5.5561478361        2.4071452596       -3.7794430078
 H        -7.3308637376        2.2780117183       -4.0270877457
 H        -6.7265839811        0.5785117319       -2.3736842131
 H        -7.2321836900        1.8962637674       -1.4275486205
 H        -4.9562159105        2.4789822102        2.7662901805
 H        -6.6104137772        2.1636277225        3.2333270126
 H        -6.2156696198        4.2286106327        1.0007646852
 H        -5.6029568215        4.6517517536        2.5710967780
 H       -10.1965405112        6.2054855985       -0.3511797364
 H       -11.4686219566        6.1729461668        0.9323164365
 H       -11.1563602825        3.6821701603       -0.9325354660
 H       -12.1289709880        5.1035263290       -1.4531277803
 H       -14.0779716576        1.6723581920        2.8327729715
 H       -13.3968158367        3.2797395284        2.8630692788
 H       -12.7548937160        1.9508484870        4.8291100671
 H       -11.2440483656        2.4143353828        4.0063160910
 H       -12.2306019153       -2.5682559398        0.9106962111
 H       -11.9913412967       -3.2395627996        2.5335028161
 H       -10.8914029928       -1.9963405439        1.8958454307
 H       -10.8358079218       -2.1461844495        4.4974203518
 H       -12.1769926295       -3.0466785989        4.8541793426
 H       -11.8637269794       -1.8203540689        5.8236115528
 H       -14.4607132131        0.2333525382        4.4480889010
 H       -13.5191455289       -0.1477102704        5.9110267730
 H       -14.4631613730       -1.3826877972        5.0629583753
 H       -15.4936283080        2.6467353042       -0.4376174730
 H       -15.2747687402        3.2345727813        1.2124481718
 H       -15.2283610538        1.5563451152        0.8463060082
 H       -13.7036077484        0.9536178720       -1.3454660172
 H       -12.0445146778        1.4113435403       -1.0903764794
 H       -13.1044327560        2.3170598424       -2.1593411715
 H        -9.7201511918        6.1756013676        3.4760992900
 H        -9.1975284717        7.5105140019        2.4913667236
 H        -8.0483654600        6.5905853476        3.5690302695
 H        -6.7710054209        6.4860873122        1.0965521316
 H        -8.2607003383        6.8994504877        0.2332597658
 H        -7.3110906086        5.4066245850       -0.0264920414
 H        -4.5576187042       -0.7328475760       -0.6247591828
 H        -6.2720847477       -0.6387623659       -0.6143279444
 H        -5.4298198902       -0.8732736085        0.8410573393
 H        -3.6558403148        0.3984820267        1.5787907342
 H        -3.4601390032        2.0884282514        1.1423042684
 H        -3.0738339876        1.1039106482       -0.1295343331
 H        -6.8337635916        5.4607547338       -6.2423494445
 H        -7.0009455164        3.6222675529       -5.7421484460
 H        -5.5591921818        4.4485413004       -5.6168479152
 H        -6.6169078575        6.8247588559       -2.7198307999
 H        -6.4045725785        7.2303382943       -4.4470407277
 H        -5.1216072341        6.3103553456       -3.4626721294
 H       -10.5007301054       10.6085653621       -5.0079940531
 H       -12.0648985288       10.8519461284       -4.1964452263
 H       -11.7093372797        9.3207070232       -5.0405902607
 H        -9.2715186504       10.2300185695       -1.5034558251
 H       -10.6653186000       11.1715720527       -1.9398860812
 H        -9.0789197939       11.0719158369       -2.8915086034
 Na       -9.4083494124        1.6577334787        2.3023464575
