117

 C       -13.0337293101       10.1108987166       -2.1414481094
 C       -11.7831804784        9.1747524604       -2.1194260115
 O       -11.6112220710        8.3530126282       -1.2517037808
 C       -10.6867430571        9.5770503643       -3.1366275170
 C        -9.7453332438        8.2715781613       -3.3926760863
 O        -8.6971033947        8.0256942632       -2.8199741275
 C       -10.3115480673        7.1240625913       -4.3723149406
 C        -9.1740439310        6.1160234439       -4.9049863169
 C        -8.4601869029        5.2338166867       -3.9050044252
 O        -9.0626487352        4.5637537902       -3.0573071307
 C        -6.8231377416        5.0936072496       -3.9901083221
 C        -6.5271013568        4.0354178526       -2.9296874930
 O        -6.6288617253        4.3751154617       -1.7433267961
 C        -6.4417902833        2.5445278319       -3.3129720226
 C        -6.3892430385        1.5966885274       -2.1224987482
 C        -5.1882761946        1.8248643204       -1.2235555311
 O        -4.2249101438        2.4318690976       -1.5783530720
 C        -5.1913667006        0.9346978143        0.1866799552
 C        -6.3317193270        1.5287166270        1.1820692098
 O        -7.4660876144        1.1489566496        0.9614540295
 C        -6.0998994632        2.4935512025        2.3627760343
 C        -6.3519653344        3.9981967982        2.1602493482
 C        -7.8763478080        4.3564471307        2.5348229953
 O        -8.3293123949        3.8326053371        3.5038442709
 C        -8.6043958805        5.5380248642        1.8120897672
 C        -9.9145111841        4.8962827792        1.2134555569
 O       -10.1811579519        3.7495228056        1.5150077378
 C       -10.9123554604        5.6643766351        0.1312850924
 C       -11.6664318438        4.6856705035       -0.6423596912
 C       -12.9274415811        4.0941952011        0.2051149669
 O       -13.4952900553        4.8000609816        0.9500299462
 C       -13.3493812301        2.5281578365        0.2070167762
 C       -12.4706795699        2.0393437465        1.3847421818
 O       -11.4083556539        1.5165671658        1.1179623672
 C       -13.1011431773        2.1177073613        2.7743373469
 C       -12.1772698757        1.7795963695        4.0119038176
 C       -11.6530449398        0.3534374322        3.9747759388
 O       -10.4569309442        0.1323417500        3.7357937844
 C       -12.5500320699       -0.8337165883        4.2173730056
 C       -12.9314282426       -1.2091239022        2.6887418512
 O       -13.7659505560       -0.6245972709        2.0651619847
 C       -12.1752048396       -2.3153006009        1.9787906039
 C       -11.8666866876       -2.0766095796        4.8284177001
 C       -13.8123080133       -0.5094696823        5.0063863901
 C       -14.8782718797        2.5246389093        0.4755042797
 C       -13.1327680579        1.8586068069       -1.0964589001
 C        -9.0355113212        6.6189328119        2.8466089998
 C        -7.7844647179        6.1773796491        0.6188940266
 C        -5.4715230264       -0.6020816842       -0.1038678634
 C        -3.8271926707        1.1866603222        0.7983963539
 C        -6.5766911804        4.6197488693       -5.4156537927
 C        -6.1534895126        6.4282871226       -3.8238072849
 C       -11.2951465713       10.1530458130       -4.4266504444
 C        -9.8211110809       10.6030638713       -2.3834224298
 H       -12.6198945440       11.1280848169       -2.3152737749
 H       -13.7591864567       10.0774015312       -1.2944620294
 H       -13.6637207988        9.9899659805       -3.0279743640
 H       -10.8250671116        7.5135732896       -5.2214195312
 H       -11.0811785354        6.6346128730       -3.7734326814
 H        -8.4633116422        6.7004238463       -5.4617929966
 H        -9.6894803822        5.3926888688       -5.5507924749
 H        -5.5074217539        2.2979355211       -3.8318416981
 H        -7.3054224366        2.2665818142       -3.9203583657
 H        -6.3546547988        0.5712911801       -2.4653002784
 H        -7.2758754851        1.6712731871       -1.5187727186
 H        -5.0429219529        2.5106036512        2.6168467486
 H        -6.5477271831        2.1950652604        3.3043036347
 H        -6.2993085693        4.4052147077        1.1380467578
 H        -5.6226803557        4.5429247116        2.7758699415
 H       -10.2600026883        6.2396586860       -0.5378467254
 H       -11.5436732501        6.2749023060        0.7216435776
 H       -11.0814885627        3.8753195571       -0.9504959974
 H       -12.1124391269        5.1527418227       -1.5555116903
 H       -14.0376135072        1.5109870881        2.6414095909
 H       -13.4278310842        3.1376264691        2.9385739289
 H       -12.6409486893        1.9446936792        4.9622969684
 H       -11.2059116606        2.2971691345        3.9268019797
 H       -12.4733447996       -2.3188444137        0.9184987830
 H       -12.3666467750       -3.2675224358        2.4678085496
 H       -11.1253924259       -2.1810220101        1.9778771872
 H       -10.9062387166       -2.2505572909        4.3754888271
 H       -12.3129256925       -3.0197013064        4.8426898387
 H       -11.6939886258       -1.9179883563        5.8944272042
 H       -14.2284585963        0.3668876654        4.6087995935
 H       -13.6209136700       -0.3722972864        6.0416478476
 H       -14.5614757430       -1.2995084029        4.8002930225
 H       -15.4005121269        2.8156473639       -0.4525321518
 H       -15.1614101373        3.2033539025        1.2814324022
 H       -15.2655224270        1.5537378496        0.7235394614
 H       -14.0294021438        1.2619657786       -1.2704170614
 H       -12.3060031990        1.1919481850       -1.0980522574
 H       -13.0451368672        2.4643105552       -1.9621389101
 H       -10.0377214260        6.4095913893        3.3011787443
 H        -9.0889056922        7.6153757112        2.3930386926
 H        -8.3048183034        6.5368186266        3.6505197773
 H        -6.7781930236        6.5019258149        0.9371435512
 H        -8.3477466446        6.8674054620        0.0653646912
 H        -7.4672405819        5.3686296346       -0.0806686069
 H        -4.7905954692       -0.9856818762       -0.7801796270
 H        -6.4473443167       -0.8043879354       -0.4505776776
 H        -5.3435923745       -1.1487479077        0.7973909510
 H        -3.9094634739        0.8957168907        1.8457322545
 H        -3.4480872715        2.2593457807        0.6744678457
 H        -3.1228271293        0.6830784546        0.1814788664
 H        -6.8813668055        5.3595745181       -6.0716065051
 H        -7.0937561210        3.6972215909       -5.5632249947
 H        -5.5448404666        4.3019873005       -5.7262225934
 H        -6.3205471117        6.8678121522       -2.8210577828
 H        -6.4815100837        7.1531883433       -4.6045926871
 H        -5.0960405208        6.2656320866       -3.8304292262
 H       -10.5553881805       10.1232876466       -5.2157425344
 H       -11.6323810592       11.1883755808       -4.3451132268
 H       -12.1351875147        9.5466795030       -4.7384854328
 H        -9.2139255563       10.1954195811       -1.6084769538
 H       -10.5497467672       11.2888102241       -1.9041160547
 H        -9.0925595973       10.9845876151       -3.0392517404
 Na       -9.3825314912        1.7161184729        2.3069440013
