117

 C        -5.5863626286       -4.6856647785        4.5392775388
 C        -5.7763959520       -5.3995700650        3.2362246908
 O        -5.1863524910       -6.3624918822        2.8574258818
 C        -7.0828362894       -5.0175363982        2.3411110380
 C        -8.2777011528       -4.5214999478        3.2544822300
 O        -8.9936051538       -5.3136529554        3.8725393298
 C        -8.7631582297       -3.0448837800        3.2554017755
 C        -9.7396629772       -2.4181822159        4.3928866269
 C       -10.8225819861       -1.4475528130        3.8319893128
 O       -11.3423163770       -1.5858413558        2.7751066267
 C       -11.1087274290       -0.0597582249        4.7367707425
 C       -10.0834864883        0.8247816367        4.0383074723
 O        -8.9080429261        0.6961256257        4.3704530067
 C       -10.5372599898        1.8009988298        2.9068603865
 C        -9.4158051496        2.1112478499        1.9045593169
 C        -9.9320307056        2.8697672626        0.6285013587
 O        -9.6713969975        4.0360758741        0.5080041173
 C       -10.5846955540        2.0203106600       -0.5728912935
 C       -12.1426107441        2.4952506762       -0.4887918116
 O       -12.6406232460        2.7572475735        0.5816702737
 C       -13.1313566542        2.5259085204       -1.7161303233
 C       -13.8790782930        3.8819398005       -1.6543567217
 C       -12.9059626238        5.0567427197       -1.5781147881
 O       -11.7610945069        4.8000660860       -1.2682898098
 C       -13.1822633372        6.4376583891       -2.1583400844
 C       -12.0827096947        6.8420429134       -3.2066563736
 O       -10.8905704401        6.6723819398       -2.9722454059
 C       -12.5914134225        7.6687630453       -4.3730808693
 C       -11.3614906173        8.3435830299       -5.0010521202
 C       -11.1349321697        9.7718669734       -4.2743294329
 O       -11.9306855513       10.1848473750       -3.4156345717
 C        -9.6813271819       10.5136919136       -4.3359413942
 C        -8.7585434173       10.0503641187       -3.0293174233
 O        -7.9289178857        9.2172452105       -3.2362505982
 C        -9.1439449065       10.5982159565       -1.7012074320
 C        -8.1726940347       10.1470676578       -0.5943538219
 C        -8.3412755046        8.6552881356       -0.3631615834
 O        -9.4522839128        8.2028295751       -0.2154419442
 C        -6.9780093656        7.8155099685       -0.3591283849
 C        -6.9580777193        6.8957200350       -1.6153453836
 O        -7.7097655323        5.9092620917       -1.6877634426
 C        -5.8639210635        7.1185637097       -2.7395621314
 C        -5.7545942025        8.6433675536       -0.2905283894
 C        -7.2020408880        6.9193870989        0.9908612478
 C        -8.8189546398       10.1852846510       -5.5707964410
 C        -9.9287816294       12.0286580008       -4.3032696289
 C       -14.5965669063        6.5023214217       -2.7638207686
 C       -13.0869967950        7.6356524078       -1.1655455005
 C        -9.9263395093        2.4151617582       -1.8893144137
 C       -10.4019033332        0.4873469280       -0.3587920533
 C       -12.5737457682        0.4269317591        4.4549562074
 C       -10.7982417218       -0.1353052660        6.2143009273
 C        -6.5474517990       -3.8250794881        1.4893964260
 C        -7.5178288270       -6.2715907908        1.5686900776
 H        -6.0846213266       -3.7034717961        4.5206729562
 H        -4.4760982864       -4.5096731716        4.7399895474
 H        -5.8834647488       -5.4000563043        5.2891392717
 H        -9.1025279078       -2.8010937924        2.2810759416
 H        -7.7979808442       -2.4129107968        3.1875144068
 H        -9.1522861162       -1.9238846762        5.1429105220
 H       -10.0909884388       -3.3275644297        4.9103211387
 H       -10.9652107831        2.7666266095        3.3489279352
 H       -11.4380898418        1.3800782867        2.3823201818
 H        -8.9174302932        1.1891592484        1.6752511000
 H        -8.7237322857        2.7887111538        2.3773893973
 H       -13.9083065664        1.8424117885       -1.5186865495
 H       -12.5829262431        2.3888891706       -2.6239868765
 H       -14.5753750598        3.8074607729       -0.8608070845
 H       -14.3866523372        3.8809986892       -2.5655201782
 H       -13.3147216505        8.5298688721       -4.0894026437
 H       -13.1529165493        6.9586561319       -4.9507553404
 H       -11.3553328981        8.4977293051       -6.0628519643
 H       -10.3832304147        7.8045412068       -4.8797473255
 H       -10.2381598643       10.4102990529       -1.4544545403
 H        -9.0455028152       11.6729408129       -1.7649358819
 H        -8.4987697921       10.6716408763        0.3695955579
 H        -7.1852900461       10.4801112104       -0.8286840522
 H        -5.6256361015        8.1869578987       -2.9223693942
 H        -6.1896528476        6.7477582742       -3.7120596229
 H        -5.0197966388        6.6149914599       -2.3941045075
 H        -5.6130445177        9.3381609858        0.5064504126
 H        -5.6353367971        9.1854408681       -1.2537013687
 H        -4.9059325583        7.9788050056       -0.2873246865
 H        -7.9651232845        7.3968617140        1.6463335540
 H        -6.3450010127        6.8953176609        1.6684391722
 H        -7.5412832677        5.8792572676        0.7396274795
 H        -8.3540734549       11.0715579450       -6.0165649753
 H        -9.5515084712        9.8763513264       -6.3751170822
 H        -8.2001230880        9.3054655775       -5.3674707348
 H        -9.0065602634       12.5263807314       -4.4242804956
 H       -10.4334765832       12.4276471636       -3.3779283517
 H       -10.5910792170       12.3023409704       -5.1534286183
 H       -15.3826056320        6.3606101968       -2.0750324753
 H       -14.7512100404        5.7712664936       -3.4750623897
 H       -14.7337876430        7.4000432662       -3.3952010287
 H       -13.7970114105        7.5811556932       -0.3903621878
 H       -13.1872338752        8.5028249260       -1.7567253920
 H       -12.1347480371        7.7724926648       -0.7533972873
 H       -10.2034607049        1.6832710196       -2.6388755843
 H        -8.8006006421        2.3882163983       -1.8023999749
 H       -10.1217974445        3.3779629088       -2.2467836169
 H       -10.5931101479        0.2734499426        0.7048193065
 H        -9.3564052870        0.2744898917       -0.5229452389
 H       -11.0777906632       -0.1298997257       -1.0750178080
 H       -13.3078572863        0.0931980341        5.2057089157
 H       -12.8772040641        0.0505832244        3.5175072228
 H       -12.7559035444        1.5015399964        4.3024400462
 H       -11.5545786960       -0.8214260108        6.6810220528
 H       -10.9981224441        0.8100610942        6.6911546200
 H        -9.8322455120       -0.6564350957        6.3417093255
 H        -5.8921168810       -3.2392160193        2.1165768347
 H        -7.2820920600       -3.0827858649        1.1188266152
 H        -5.9440231280       -4.1697093413        0.6383390867
 H        -8.0932400630       -6.8856975260        2.2456280013
 H        -6.6568435622       -6.8476715265        1.1591758601
 H        -8.2171429513       -6.0691930488        0.7007253038
 Na       -9.8999851934        6.0617869660       -0.8047009875
