117

 C       -12.7563510773        8.5455577259       -3.3503042765
 C       -11.4896620226        8.9893889304       -2.6000639994
 O       -11.5462136965        9.1068098555       -1.3999883246
 C       -10.1133300354        9.3373190089       -3.3679796416
 C        -9.5327616744        7.9089258057       -3.6392726625
 O        -8.4783426522        7.5787337335       -3.1185562782
 C       -10.2003523135        6.9983672965       -4.7129737850
 C        -9.1366107402        6.0821403107       -5.2020933686
 C        -8.5741999214        5.3146382775       -3.9324043184
 O        -9.3787613497        4.9259097738       -3.1387403619
 C        -7.0589445139        4.8247341360       -4.0302584626
 C        -6.8465537997        3.7972487641       -2.8548501610
 O        -6.9501917817        4.1483541142       -1.7138540980
 C        -6.3069768135        2.3835968531       -3.0981060683
 C        -6.4812579073        1.4204801875       -1.8507959636
 C        -5.3022196053        1.5114127048       -0.8521007303
 O        -4.2685440440        2.1247639159       -1.0304602394
 C        -5.4727527423        0.7110004189        0.5379777923
 C        -6.3586539059        1.6183120709        1.5584063519
 O        -7.4550150853        1.1691789240        1.8693511206
 C        -5.8372111661        2.9267604352        2.0864843918
 C        -6.5341513549        4.0861133784        1.3761835428
 C        -7.9418691441        4.4021054800        1.9072955190
 O        -8.2560295258        3.8777142192        3.0103038121
 C        -8.8879738881        5.5399584002        1.2990202794
 C        -9.8861416820        4.8078882937        0.2800272709
 O        -9.8592642435        3.6028755972        0.2126824185
 C       -10.9343807874        5.7802057738       -0.4015314637
 C       -12.2431994511        4.9856312746       -0.8099571135
 C       -12.8386962862        4.3080809484        0.5526443733
 O       -13.0137234277        4.9922781668        1.5072359108
 C       -13.4737083150        2.8252840607        0.5533948286
 C       -12.5444895509        2.1514158892        1.5854635543
 O       -11.5032883568        1.5867676914        1.2275136470
 C       -12.8825190137        2.4007990892        3.0833010893
 C       -11.8864302006        1.9891622547        4.1142941153
 C       -11.4258625282        0.5354950809        4.1300717118
 O       -10.3401559993        0.2986810625        3.6087810365
 C       -12.3157092964       -0.6603696489        4.5375659717
 C       -13.1698119464       -0.9488945155        3.2976737160
 O       -14.0937941700       -0.2208233352        2.9725484110
 C       -12.6694177730       -1.9598384499        2.2850952916
 C       -11.3801784547       -1.8153647756        4.8763568877
 C       -13.1645244068       -0.3257951144        5.7764636359
 C       -14.9313819213        2.9669861022        1.0242812243
 C       -13.3461598246        2.1814859231       -0.8250855589
 C        -9.6564823642        6.2756156328        2.4751806687
 C        -8.0486317730        6.5926803343        0.5046688339
 C        -6.3025688817       -0.5656973807        0.2882143291
 C        -4.0468131286        0.4435724687        1.1440962852
 C        -6.7937306029        4.1999064940       -5.4810536115
 C        -6.0925086238        5.9725786412       -3.6269751942
 C       -10.3691614527       10.1365504747       -4.7581306122
 C        -9.1668731084       10.1380920743       -2.4582675373
 H       -13.6268372302        9.1975419004       -3.0616406952
 H       -13.1560297704        7.5219223924       -3.1814246227
 H       -12.6398590769        8.6550185494       -4.4407029314
 H       -10.5980957427        7.6288665093       -5.5318802414
 H       -11.0102467624        6.3078073279       -4.2750872250
 H        -8.4370519630        6.6575939026       -5.7330402263
 H        -9.5690633758        5.4081275781       -5.9151278861
 H        -5.2453876642        2.4562320215       -3.3204464610
 H        -6.5324829843        1.9457170752       -4.0987483005
 H        -6.4644223719        0.3374456348       -2.1324372278
 H        -7.3724929128        1.7208797340       -1.3162425415
 H        -4.7884642609        3.1406035090        1.9559725314
 H        -6.2219623245        2.8557657766        3.1441155779
 H        -6.4582534428        3.9623230565        0.2658625628
 H        -5.9823308488        5.0040475664        1.6276006844
 H       -10.3735928029        6.1153815879       -1.3056103466
 H       -11.1054082938        6.6315392513        0.2617761226
 H       -12.2831879325        4.2686386285       -1.6018468241
 H       -13.0862056082        5.7035086841       -1.0274008570
 H       -13.7857755503        1.8096659304        3.3251414108
 H       -13.1111105091        3.4356756486        3.3426854344
 H       -12.2424230853        2.2635314019        5.1160880944
 H       -10.9726242103        2.6695173771        4.0277867031
 H       -13.3549728277       -2.0247743522        1.4073885203
 H       -12.7574800007       -2.9376259812        2.7542819593
 H       -11.6753771616       -1.8186274832        2.0573072420
 H       -10.6195584699       -1.9378067353        4.1017794543
 H       -11.8932035441       -2.7671308734        4.8853506783
 H       -10.9706054096       -1.7990483019        5.9391668894
 H       -14.0386222828        0.1812315625        5.4789864512
 H       -12.5819508681        0.2854751343        6.4230637156
 H       -13.4270713001       -1.2579466027        6.3292998196
 H       -15.5239569561        3.1792405782        0.1059070953
 H       -15.1331377605        3.7121455788        1.7686050581
 H       -15.3179312749        2.0687167696        1.4946126251
 H       -13.8021387096        1.1907232057       -0.8609263209
 H       -12.3429524234        2.1517648121       -1.1754951719
 H       -13.9500816084        2.7648875685       -1.4934492989
 H       -10.6624463017        5.8487775228        2.6983942124
 H        -9.6955024452        7.3606698856        2.3205083770
 H        -9.0716120413        6.0361778404        3.3523875564
 H        -7.3132630020        7.1485498829        1.1741115600
 H        -8.6065817010        7.3893537972        0.0546585391
 H        -7.5233670288        6.0307033722       -0.2877675085
 H        -5.9667529955       -1.2321638744       -0.4208590437
 H        -7.2807999213       -0.3101554504        0.0241252126
 H        -6.3799939169       -1.0270140797        1.2379184733
 H        -3.9935538970        0.5915305680        2.1854163635
 H        -3.1840554090        1.0679715577        0.6974424247
 H        -3.9046259193       -0.6136307176        1.1450138008
 H        -6.8823403960        4.8157579893       -6.3060107114
 H        -7.3791995839        3.3285215593       -5.5330076139
 H        -5.7156503109        3.9103960230       -5.4261396525
 H        -6.3907476455        6.4020558714       -2.6320726863
 H        -6.1601065048        6.7532339181       -4.4159202789
 H        -5.0836788877        5.6027141037       -3.6893140090
 H       -10.3064497077        9.5233394056       -5.6437477537
 H        -9.5999811122       10.8928558022       -4.7874346973
 H       -11.3335449795       10.6115453340       -4.8433090659
 H        -9.1509766794        9.5840975147       -1.5242152759
 H        -9.2498679573       11.2353705407       -2.4363533881
 H        -8.1762394503       10.0799275703       -2.9020022172
 Na       -9.6123484297        2.0700681673        2.2863191204
