117

 C       -12.6539242066        8.5524777006       -3.4910776066
 C       -11.5065442787        9.0879196286       -2.6910818763
 O       -11.5523268723        9.0983214444       -1.4631859120
 C       -10.0890176588        9.3467939985       -3.3394373831
 C        -9.4972750965        8.0184194364       -3.7731332431
 O        -8.5263179973        7.5704876885       -3.1663770541
 C       -10.2126555974        7.0381086384       -4.7134384022
 C        -9.1272321624        6.0856436473       -5.2279130506
 C        -8.5473416844        5.1912967705       -4.1189156414
 O        -9.2873625251        4.8452952977       -3.2245023113
 C        -7.0051169857        4.7011653042       -4.0681712750
 C        -6.8318466023        3.7418212030       -2.8574498956
 O        -7.1205428868        4.2088280434       -1.7440034886
 C        -6.3558855496        2.2633639954       -3.1098831020
 C        -6.3763720699        1.2853541549       -1.8862098593
 C        -5.2542363724        1.5030908552       -0.8340509589
 O        -4.2770829898        2.1237303889       -1.1003126759
 C        -5.5426493535        0.7922302886        0.5941264610
 C        -6.3891380367        1.6521767426        1.6284090662
 O        -7.5162360848        1.1771150220        1.8556358425
 C        -5.7837236071        2.9125595378        2.1990578500
 C        -6.5364198024        4.0773261756        1.4636842697
 C        -7.8807240602        4.4249629320        2.0836436603
 O        -8.3972717992        3.8060521553        2.9632321432
 C        -8.7441436880        5.4328678603        1.3139825779
 C        -9.8571896783        4.7804402992        0.3945266213
 O        -9.8474938111        3.5790629028        0.1728166017
 C       -10.8058181586        5.6462979048       -0.3972203415
 C       -12.0724867647        4.8193778655       -0.7186041286
 C       -12.9286852254        4.4108014903        0.4721696042
 O       -12.9731037650        5.0467811184        1.5429435230
 C       -13.5522420315        2.8940769232        0.5095066064
 C       -12.6206204516        2.1500010148        1.5940938772
 O       -11.5549633215        1.7221768428        1.2299309572
 C       -13.0112646596        2.3419697729        3.1203010219
 C       -11.9485068488        2.0787100592        4.1625820009
 C       -11.3468990757        0.5840610037        4.1011812596
 O       -10.2448660930        0.4235120801        3.6444054052
 C       -12.2360198885       -0.5861401180        4.5288457201
 C       -13.2425029324       -0.9180091447        3.2901208100
 O       -14.2909049946       -0.3118316163        3.1910294709
 C       -12.6732479313       -1.9338004888        2.2793207183
 C       -11.2846382264       -1.7898365514        4.8878244526
 C       -13.1379854525       -0.2305545708        5.8414449193
 C       -14.9813905602        3.0475033696        1.0320196737
 C       -13.5008003317        2.1949100000       -0.8688388237
 C        -9.5857616249        6.2210018364        2.4603626598
 C        -8.0782255485        6.5235526553        0.4493215559
 C        -6.2325365410       -0.5623872625        0.3559619126
 C        -4.1485991380        0.5407394096        1.1840009327
 C        -6.7507372704        4.2586941809       -5.4802255660
 C        -6.0330942957        5.8514620025       -3.7326616398
 C       -10.4370559365       10.1797615275       -4.6342535278
 C        -9.1865922574       10.0663715120       -2.4202569667
 H       -13.6579640593        8.7648648996       -3.1349122742
 H       -12.6228271492        7.4700848008       -3.5753522862
 H       -12.5930179067        8.8712846408       -4.5547632912
 H       -10.8451154981        7.5287155241       -5.5017375402
 H       -10.8133828560        6.3445368750       -4.0420932282
 H        -8.3442691707        6.7523070410       -5.7183442181
 H        -9.5503405802        5.4269582654       -6.0405352023
 H        -5.4821706837        2.1345560265       -3.7823907310
 H        -7.0253005660        1.8888099435       -3.8713244688
 H        -6.3290310559        0.2064304150       -2.1813463783
 H        -7.3508683091        1.5479529457       -1.3854596356
 H        -4.7667573298        3.0667081918        2.0256776296
 H        -6.1818674183        2.7515524304        3.2625113339
 H        -6.6561094544        3.7622380178        0.4459788592
 H        -5.9667867459        5.0061988317        1.3802676150
 H       -10.2802518210        5.6476049514       -1.4150889904
 H       -10.9493258069        6.6710627354       -0.0487629949
 H       -12.0767230570        3.8770672242       -1.3415762762
 H       -12.7410348908        5.5017386172       -1.2479428385
 H       -13.9166970849        1.7825487804        3.4765888873
 H       -13.2493233680        3.3919487901        3.2641213237
 H       -12.4011686464        2.1946315178        5.1592299040
 H       -11.1908806234        2.8882364316        4.1313333522
 H       -13.1821053422       -1.8964461730        1.3564901968
 H       -12.8238623817       -2.9582661902        2.6618558378
 H       -11.6007086344       -1.7897228184        2.1804587136
 H       -10.6486028930       -2.0907732682        4.0409918805
 H       -11.8502296588       -2.7300978143        5.1431580654
 H       -10.7498529187       -1.6429451827        5.8671322754
 H       -13.9574748644        0.4462484977        5.5831079165
 H       -12.4895384505        0.2224530566        6.5724688606
 H       -13.5647774444       -1.1361318024        6.2408456280
 H       -15.6237715844        3.3002756754        0.1396313693
 H       -15.0917901815        3.7923495810        1.7907719564
 H       -15.4143339839        2.1997815311        1.6058991539
 H       -14.1462515440        1.3604437797       -0.9088146277
 H       -12.4863277065        1.9350546076       -1.1199327309
 H       -13.9152401066        2.8604313239       -1.6197416715
 H       -10.5262398023        5.7308780248        2.8058126692
 H        -9.7979871645        7.2347947994        2.0328097403
 H        -8.9527384849        6.2971921768        3.3541464619
 H        -7.1724414040        6.9992728610        0.9368676384
 H        -8.7741868499        7.3989669455        0.3013233776
 H        -7.8218049524        6.1342551637       -0.5123937028
 H        -5.8194130994       -1.1916849150       -0.4333853288
 H        -7.2549326009       -0.4137835495        0.0869343021
 H        -6.2135128560       -1.0759066935        1.2926500704
 H        -4.1403965954        0.4803463054        2.2676327257
 H        -3.4580963069        1.2942608723        0.9124547883
 H        -3.8086907650       -0.5261934818        0.9135364795
 H        -6.8361313456        5.1459066634       -6.1326103121
 H        -7.4354120139        3.4618574850       -5.7202458901
 H        -5.7734001108        3.9199711054       -5.5600510936
 H        -6.4682551446        6.4766108627       -2.9371092067
 H        -5.9200209382        6.4443334524       -4.6228432031
 H        -5.0418593446        5.4332856906       -3.4935205480
 H       -10.6272555649        9.5503551463       -5.4877673900
 H        -9.6106939911       10.8004277487       -4.8640475793
 H       -11.3312827519       10.7997752394       -4.5254267520
 H        -9.2684542738        9.6086211136       -1.4083450284
 H        -9.3145775007       11.1075966827       -2.4994616241
 H        -8.1084908796        9.9802423402       -2.7766608317
 Na       -9.4946035746        2.1291572763        2.3020443135
