117

 C       -12.7490499296        8.6393559637       -3.6127206733
 C       -11.5942659241        9.0417980019       -2.7388244258
 O       -11.6617509544        9.0436490991       -1.5283422638
 C       -10.1925230956        9.4033105238       -3.4081753715
 C        -9.3807794576        8.0451452526       -3.8331375983
 O        -8.4271337849        7.6995709139       -3.1716766544
 C        -9.9803415312        7.0711877698       -4.8522150848
 C        -8.9412718166        6.0029236157       -5.3157157804
 C        -8.4795724731        5.0560400731       -4.2012852275
 O        -9.2754265145        4.6348582108       -3.4153718961
 C        -6.9867409702        4.6101091590       -4.0889406513
 C        -6.8660840647        3.6043247785       -2.8769913871
 O        -7.2193936297        4.0049423258       -1.8082024902
 C        -6.4411492695        2.1433201745       -3.1978687706
 C        -6.4917193537        1.2422809209       -1.8939072187
 C        -5.3450325336        1.4568846865       -0.8335836230
 O        -4.4173991552        2.2134171047       -1.0435900762
 C        -5.4627824484        0.7951885307        0.5836917773
 C        -6.4247112050        1.5975464252        1.4573304049
 O        -7.5085888021        1.1283999965        1.7055736083
 C        -5.9263741270        2.9173006858        2.1642046265
 C        -6.4277479463        4.2256894008        1.5689460243
 C        -7.8589240203        4.4756128015        2.0786123119
 O        -8.2815022666        3.9481109071        3.1612622463
 C        -8.7550493178        5.4956573057        1.3297095583
 C        -9.7396255759        4.6721714489        0.5396971729
 O        -9.7012174423        3.4702115007        0.4781569910
 C       -10.7156818221        5.3747500609       -0.4094507968
 C       -11.9631940528        4.5684835695       -0.8079538119
 C       -12.9314705064        4.3990020942        0.4965564259
 O       -12.8349391871        5.2406552982        1.3307377917
 C       -13.6893083089        3.0386400559        0.5948313566
 C       -12.8383988407        2.2636496251        1.6803149507
 O       -11.7594736737        1.8367559630        1.2757842946
 C       -13.2601847751        2.3861969057        3.1166782560
 C       -11.9809740776        2.2023815368        4.0462734282
 C       -11.4161232231        0.7867160524        4.0410740462
 O       -10.2420475548        0.6376548099        3.7378560513
 C       -12.2311457913       -0.5059011129        4.5636936353
 C       -13.2663230822       -0.9983180739        3.4721396177
 O       -14.4095395729       -0.6520608874        3.6682824261
 C       -12.7493051929       -1.7870017619        2.2213584348
 C       -11.2480747101       -1.6628790716        4.9161054280
 C       -13.0497302169       -0.0991234523        5.8389190581
 C       -15.1353003183        3.2974390189        1.0410809882
 C       -13.6943368357        2.2149593521       -0.7099727495
 C        -9.5784867790        6.2679877594        2.3617052367
 C        -7.9169147302        6.3955832248        0.4520977363
 C        -6.0448841138       -0.6428251215        0.4090745726
 C        -4.0474981439        0.6338354339        1.2254052269
 C        -6.5677334678        3.8994065245       -5.4051558193
 C        -6.0863840285        5.8342051460       -3.9184831902
 C       -10.3081163186       10.3338157081       -4.5608268742
 C        -9.2811010005       10.1176952388       -2.3811087228
 H       -13.5922937887        8.4786274694       -2.9557017990
 H       -12.5056630690        7.6913323597       -4.0917680610
 H       -13.0717743673        9.2005741398       -4.4335196258
 H       -10.3629835765        7.6311613500       -5.6661423010
 H       -10.7850152097        6.5620541407       -4.3869063091
 H        -8.1948149387        6.6129153483       -5.7956617880
 H        -9.4169400065        5.3716421562       -6.0983634389
 H        -5.5370718386        2.0309432663       -3.7617019276
 H        -7.0694741176        1.6943916205       -3.9870277575
 H        -6.5855965201        0.1852733177       -2.1369315670
 H        -7.3695856818        1.5704402992       -1.3760267396
 H        -4.8324257448        3.0317288129        1.9852776565
 H        -6.2325939456        2.8642201123        3.1879461662
 H        -6.3769837541        4.1873065115        0.4476990699
 H        -5.8426912877        5.0897581133        1.8983847953
 H       -10.2892671081        5.5847781076       -1.3751049231
 H       -10.9187030598        6.3496462495        0.0745379143
 H       -11.6960991911        3.5777247487       -0.9999265363
 H       -12.4307432270        4.9558143555       -1.7247041899
 H       -14.0600663022        1.7333318251        3.4029685802
 H       -13.6241883123        3.4305061425        3.2565040341
 H       -12.1420396119        2.3480914370        5.1218320999
 H       -11.2466539065        2.9200053532        3.6781332945
 H       -13.3732491098       -1.5489899126        1.2936587851
 H       -12.7526126771       -2.8677478488        2.3719135287
 H       -11.7310345268       -1.4788060332        2.0279913765
 H       -10.7827303745       -1.9867096527        3.9994473208
 H       -11.6261124189       -2.5286577971        5.3888993691
 H       -10.5293856222       -1.2729421940        5.6196961424
 H       -13.6397149821        0.7783973391        5.6056262458
 H       -12.3154075216        0.1624531529        6.6158743959
 H       -13.7840477971       -0.8839155597        6.1367203866
 H       -15.6947061161        3.8197600663        0.3011504817
 H       -15.1601745963        3.7842240192        2.0216103395
 H       -15.6486800463        2.4121370912        1.3273760295
 H       -14.4881677877        1.4258477804       -0.6346759151
 H       -12.6939195035        1.7764830932       -0.7676844767
 H       -13.9514486042        2.7566714959       -1.6208929965
 H        -9.7867138345        5.6246255135        3.2046679310
 H       -10.4998430768        6.5604601180        1.9152298998
 H        -9.0172660198        7.1099688701        2.7470267199
 H        -7.0828392962        6.7603400707        1.0293946275
 H        -8.4739548602        7.1914999241        0.0532266429
 H        -7.4640009411        5.8194387000       -0.3889211798
 H        -5.4082805437       -1.1673955104       -0.3381995048
 H        -7.0436332240       -0.6010664974       -0.1220465370
 H        -6.1110242085       -1.2704761758        1.3581659903
 H        -4.0518819917       -0.0198399979        2.1046443422
 H        -3.5840150881        1.6457208625        1.5784571022
 H        -3.3372585869        0.3276699260        0.5002846562
 H        -6.5580757101        4.6918870874       -6.1372025746
 H        -7.3050438881        3.1084091869       -5.6571729013
 H        -5.5395365198        3.3393878853       -5.3277241192
 H        -6.3450987991        6.3885936127       -3.0302758460
 H        -6.2209312851        6.4910628698       -4.7835939419
 H        -5.1031275975        5.4436024230       -3.8581177148
 H       -11.1035458627       10.1397318136       -5.3027495196
 H        -9.3510451872       10.3898990062       -5.1364528428
 H       -10.5005703077       11.3109169384       -4.1177217081
 H        -9.2381083814        9.5516295417       -1.4717569797
 H        -9.7169877525       11.1585004074       -2.1898528811
 H        -8.2797622236       10.2457171785       -2.7256588510
 Na       -9.4714071242        2.0603921289        2.2265916901
