117

 C       -12.8377818668        8.6850089152       -3.6210252954
 C       -11.6037211767        8.9901160136       -2.8036850364
 O       -11.7048677722        8.9873778518       -1.5648034729
 C       -10.1578586379        9.4123477950       -3.4136211530
 C        -9.3880068045        8.0622199492       -3.7460952909
 O        -8.3390777173        7.7583456792       -3.1723074390
 C        -9.8541354250        7.1869990596       -4.9692665946
 C        -8.8424949971        6.0899161778       -5.3626849192
 C        -8.5159145449        5.0111438189       -4.2198216273
 O        -9.3853777980        4.5803066513       -3.4958377055
 C        -6.9459933082        4.5255141735       -4.1272194077
 C        -6.8090237041        3.5366627336       -2.8819083368
 O        -7.1624858015        3.9128052152       -1.7696688832
 C        -6.3586371109        2.1035439591       -3.0489549098
 C        -6.5633831395        1.2537589198       -1.7260851030
 C        -5.3494721773        1.5180536871       -0.8256700012
 O        -4.5090151252        2.3291349555       -1.1140545222
 C        -5.3678085777        0.7423351838        0.4798442862
 C        -6.3729401317        1.5033335820        1.4086312344
 O        -7.5368477663        1.1344146771        1.5652189754
 C        -5.8717817368        2.8238228783        2.1529265013
 C        -6.4095194338        4.1697279290        1.6461657388
 C        -7.7441450326        4.6028869007        2.2185580903
 O        -8.1656150605        3.9991717118        3.2250566946
 C        -8.7391044850        5.5444019774        1.3915779831
 C        -9.7157272626        4.6103542931        0.4747554521
 O        -9.7458439440        3.4142371471        0.4910646176
 C       -10.6960781310        5.3467167165       -0.5798008946
 C       -11.8748376084        4.4328415415       -0.8475099995
 C       -12.8421554720        4.3461697571        0.4175098148
 O       -12.9004866282        5.2785531280        1.2097551080
 C       -13.7686476604        3.0462447180        0.6201700107
 C       -12.9357525264        2.3391790758        1.6891607210
 O       -11.8758683210        1.7881532285        1.3673649144
 C       -13.2617310137        2.4222379486        3.1967359841
 C       -12.0441628344        2.1828402188        4.0765751478
 C       -11.4361570998        0.8228033833        4.1285709422
 O       -10.2988879852        0.5867131781        3.7549082588
 C       -12.1961082113       -0.3956138015        4.6097013820
 C       -13.3062865780       -0.9482408503        3.5441431345
 O       -14.5070656802       -0.8449796233        3.6897676181
 C       -12.8032781414       -1.6076530870        2.3156290064
 C       -11.1634558359       -1.5625660667        4.9134894096
 C       -12.9786210470       -0.0464087463        5.9060933745
 C       -15.2047166393        3.5212630107        1.0722073938
 C       -13.8069523183        2.2038476956       -0.7032258873
 C        -9.6033693633        6.4494281589        2.3688630739
 C        -7.9050189265        6.4862310942        0.4308387718
 C        -5.9445603984       -0.7424715778        0.4072178695
 C        -3.9803969052        0.6409121620        1.0745470812
 C        -6.5450700401        3.7190732818       -5.4530067147
 C        -6.0945806689        5.7710884825       -3.8774456330
 C       -10.2332637918       10.2672479885       -4.7102037207
 C        -9.3290399234       10.0903036377       -2.2716550194
 H       -13.6567016225        8.4693822585       -2.9250682940
 H       -12.7610557872        7.9575520519       -4.4143738306
 H       -13.1854990787        9.5624188557       -4.1995961250
 H       -10.1472746452        7.7652481538       -5.8227255506
 H       -10.7607671046        6.6252893978       -4.6806995053
 H        -8.0349372037        6.6057455028       -5.7429687739
 H        -9.3366228617        5.5903582396       -6.1414425513
 H        -5.3471776264        2.0034583173       -3.4245496057
 H        -6.8374133947        1.5891846734       -3.9108949309
 H        -6.6132631327        0.1806565876       -1.9389510850
 H        -7.4527934317        1.5378660459       -1.2243280589
 H        -4.8368699503        2.9474867686        2.0971049204
 H        -6.3059920761        2.8877056432        3.2296922614
 H        -6.6056668055        4.2208103099        0.5452023604
 H        -5.6620722267        4.9608681367        1.8776503673
 H       -10.2638964036        5.4602554182       -1.5900552504
 H       -10.9264097846        6.3280915463       -0.2451525000
 H       -11.6296826492        3.4282204913       -1.2129296029
 H       -12.5667469991        4.8590421175       -1.5798890068
 H       -13.9630814061        1.6142140436        3.4760359411
 H       -13.7169845305        3.3262852436        3.5579653995
 H       -12.2794545852        2.4929596972        5.1088460752
 H       -11.2726206255        2.8669211694        3.6534189863
 H       -13.5484965795       -1.5674428253        1.4986871831
 H       -12.7096176013       -2.6770192294        2.6319922961
 H       -11.8628078498       -1.2585695240        1.9557064897
 H       -10.6766241808       -1.8833871708        4.0405453802
 H       -11.6544036077       -2.3965507965        5.3484955232
 H       -10.4395813437       -1.1961741485        5.6833402032
 H       -13.6865703999        0.7441337869        5.7215646142
 H       -12.2609543444        0.2773262248        6.6408208102
 H       -13.5818618676       -0.9299822175        6.2206235067
 H       -15.7074109132        4.0609312767        0.2590352444
 H       -15.1606555650        4.0720461849        1.9422322659
 H       -15.8382010958        2.7237903183        1.3927203751
 H       -14.5180301520        1.3572756120       -0.6470048609
 H       -12.7786888995        1.8690990018       -0.8748073346
 H       -14.1747055746        2.8091720140       -1.5487710894
 H        -9.7083075271        6.0872045674        3.3811990179
 H       -10.5836059120        6.6071737206        1.9537335037
 H        -9.0747466593        7.3451106285        2.4198799597
 H        -7.1830402895        7.1474705271        0.9761407456
 H        -8.6267068158        7.0539003575       -0.1072764805
 H        -7.3150798233        5.9877742381       -0.2930530463
 H        -5.3255251933       -1.4034783675       -0.2061926229
 H        -6.9283457965       -0.7472266482       -0.0551464962
 H        -6.0072761873       -1.1774097659        1.4164529315
 H        -3.9152760960        0.0210504450        1.9507124352
 H        -3.5243755659        1.6024816011        1.3418875628
 H        -3.2786294626        0.4017606357        0.2294805365
 H        -6.7194775026        4.3517061396       -6.3298162817
 H        -7.1392408867        2.7968478089       -5.4976605390
 H        -5.5177548091        3.3418693946       -5.3579724747
 H        -6.3326188948        6.1329570642       -2.8468395260
 H        -6.4875602982        6.5286237154       -4.5415324859
 H        -5.0486331868        5.5694036487       -3.9582350343
 H       -11.0701642167        9.9120607803       -5.3375133639
 H        -9.3652586207       10.2986833700       -5.3755592080
 H       -10.5079685564       11.2841939265       -4.3630734594
 H        -9.0166810336        9.4036998192       -1.4738663263
 H        -9.9314650134       10.8941147952       -1.8471942530
 H        -8.3804076563       10.4819350716       -2.6676255156
 Na       -9.5215353950        2.0110414090        2.2494375272
