117

 C       -12.7196342538        9.0498222294       -3.7966904740
 C       -11.4492554058        8.6868557473       -3.1517005510
 O       -11.3710489010        7.8203796466       -2.2787462795
 C       -10.0550651067        9.3766699824       -3.5342592759
 C        -9.1631607023        8.1155008524       -3.8020592993
 O        -8.4613628768        7.6249208302       -2.8965075222
 C        -9.5150487318        7.2247862561       -5.0277410274
 C        -8.3331628879        6.2368015434       -5.2622553425
 C        -8.3404575103        5.0331210615       -4.2934613867
 O        -9.3700085754        4.6667197574       -3.7980645409
 C        -6.9362271303        4.2614158173       -4.0566367432
 C        -7.1269409547        3.3395458382       -2.8672444977
 O        -7.5778824954        3.7922592627       -1.8605621992
 C        -6.7914690217        1.8302315300       -3.0716319839
 C        -6.6249518302        1.0119592741       -1.7738052539
 C        -5.4510389906        1.5637472202       -0.9255627499
 O        -4.7329248158        2.4638518937       -1.3161885160
 C        -5.2304177730        0.8165292190        0.4215214015
 C        -6.3190959566        1.5268281392        1.4608629089
 O        -7.4048775898        0.9793976903        1.5099978494
 C        -6.0364929523        2.8155037393        2.1538263356
 C        -6.4945464744        4.0993720491        1.3784455286
 C        -7.8005952827        4.5831412787        1.9326040005
 O        -8.3173695161        4.1563610504        2.9359306136
 C        -8.6926362157        5.4460302473        1.0506166989
 C        -9.7949356675        4.4608161197        0.2678200627
 O        -9.9547067217        3.3264200426        0.7385891421
 C       -10.4652415814        4.9387289040       -0.9356169271
 C       -11.9183886797        4.2285912091       -1.1067837630
 C       -12.6810831683        4.5392615020        0.2102955701
 O       -12.6638771031        5.5823016029        0.8135239353
 C       -13.6283339638        3.4087859368        0.7634533216
 C       -12.8346108246        2.5831459371        1.8494306988
 O       -11.8348252577        1.9102836520        1.5687847848
 C       -13.3774405176        2.5821588819        3.2932083832
 C       -12.1770073105        2.3261488151        4.2594862327
 C       -11.6942350980        0.9245617304        4.3657542108
 O       -10.5820758623        0.6629840056        3.8664717467
 C       -12.4199180285       -0.1962598727        5.0796270769
 C       -13.4577746764       -0.9292184333        4.0165720850
 O       -14.6229045075       -0.9965091780        4.2986937728
 C       -12.9353756239       -1.3370794162        2.6316938513
 C       -11.3770774851       -1.3872970030        5.3914172664
 C       -13.2499011978        0.1767830041        6.3109291848
 C       -14.9040458129        4.0915187854        1.2905351470
 C       -14.0995640691        2.4903697337       -0.3361900119
 C        -9.5739320817        6.3417626909        2.0308343809
 C        -7.9390894560        6.2931145333        0.0210280537
 C        -5.3609164751       -0.7327808625        0.3034527280
 C        -3.8209003499        1.1905925257        0.9428717638
 C        -6.5133973909        3.5608156378       -5.3502999389
 C        -5.8676439427        5.2248442294       -3.6792155218
 C       -10.1591431001       10.3403039200       -4.7360709469
 C        -9.5522942765       10.1228284784       -2.3145131379
 H       -13.6438588308        8.7017855843       -3.2755071297
 H       -12.7375277828        8.5552638840       -4.8141512049
 H       -12.9115059336       10.0888705132       -4.0172857854
 H        -9.8546753222        7.8116388781       -5.9407211979
 H       -10.4247537668        6.6278020019       -4.7868096039
 H        -7.4419270995        6.8469529800       -5.2476472798
 H        -8.4084799294        5.7499708244       -6.2630882016
 H        -5.8388275440        1.6299820595       -3.5979777321
 H        -7.6471587922        1.4117781037       -3.6335371470
 H        -6.5864634917       -0.0660662156       -1.7779957741
 H        -7.5221635730        1.2038228519       -1.1145555891
 H        -4.9571030820        2.9868679940        2.5213389082
 H        -6.6067215293        2.6453896867        3.0563407075
 H        -6.7545149559        3.7955320743        0.3513115606
 H        -5.7087036155        4.8558671515        1.2887890953
 H        -9.9374237168        4.6145789924       -1.8268086252
 H       -10.4338158526        6.0751793502       -0.9854602154
 H       -11.8158084823        3.1436205428       -1.2969158818
 H       -12.4403600217        4.7265043281       -1.9925433410
 H       -14.1816320538        1.8873328668        3.4834213075
 H       -13.8606925985        3.5521493855        3.6240901250
 H       -12.4931092045        2.6316009660        5.2911755285
 H       -11.3932114468        2.9549822536        3.8326885664
 H       -13.6590647963       -1.9803546606        2.0540779460
 H       -11.9432028251       -1.6941845310        2.5816818183
 H       -13.0168440340       -0.4247211472        2.0480650820
 H       -10.8205196891       -1.6106728300        4.4827023289
 H       -11.9459065306       -2.2146206353        5.7759192715
 H       -10.5980450841       -0.9914999346        6.0408704689
 H       -13.9062197783        1.0068255186        6.1137458780
 H       -12.5576311839        0.4338351259        7.1180244346
 H       -13.7946900910       -0.7083729514        6.6529627780
 H       -15.4078128575        4.6323974813        0.5437933799
 H       -14.7310363703        4.8968989799        2.0017829444
 H       -15.6065446270        3.3629829644        1.6047404522
 H       -14.8991473758        1.8568290434        0.0852680327
 H       -13.3196938724        1.8044748013       -0.6602349482
 H       -14.4161510197        3.1259405656       -1.1491559204
 H       -10.3439834738        5.6991108489        2.4072335984
 H        -9.9918592163        7.1965463878        1.5666661788
 H        -9.0033770756        6.7058304297        2.8773135646
 H        -7.2894285558        7.0434589855        0.4398569238
 H        -8.5919436812        6.8053383837       -0.6591012586
 H        -7.3138247246        5.5995431119       -0.6225266719
 H        -4.4435905837       -1.1172220057       -0.0569104379
 H        -6.2094162282       -1.0277382421       -0.2848698867
 H        -5.5308081357       -1.1996591324        1.2708623165
 H        -3.5802722101        1.0476165873        1.9904186543
 H        -3.7742804325        2.3425405015        0.8157087250
 H        -3.0202608948        0.8230615496        0.3534422069
 H        -6.9165372623        4.0472006449       -6.1860770902
 H        -6.7833724585        2.5396650978       -5.4374915365
 H        -5.3941090321        3.7145167757       -5.4195176776
 H        -6.2276362835        5.8702289856       -2.8710888867
 H        -5.5891858501        5.7896722853       -4.5987329988
 H        -4.9570397081        4.6773393740       -3.3902305740
 H       -10.8100134757       10.0662774381       -5.5798265803
 H        -9.1221234216       10.4662741627       -5.1254136329
 H       -10.4117853960       11.3320244144       -4.3691770649
 H        -9.9029239600        9.5555969325       -1.4646781376
 H       -10.0750857290       11.1027319454       -2.0778267765
 H        -8.4924237361       10.1125059975       -2.2506495776
 Na       -9.3386388601        1.9144319284        2.5861896041
