117

 C       -12.7855299313        9.1166427608       -3.8002803011
 C       -11.4459025112        8.6190663640       -3.2277801140
 O       -11.4515282132        7.6881364831       -2.4386187002
 C       -10.0254401325        9.3266771413       -3.4795418333
 C        -9.1035356632        8.0145351009       -3.7090195822
 O        -8.3141984659        7.6168314790       -2.8984594976
 C        -9.3161124312        7.2849324053       -5.0443989663
 C        -8.2201590385        6.2204387771       -5.3525919167
 C        -8.2926197116        5.0402833690       -4.3893340695
 O        -9.3323228231        4.6255979466       -3.8460467523
 C        -6.9235894036        4.2983205658       -4.1082466574
 C        -7.2518079177        3.2356932065       -2.9620806345
 O        -7.6166313819        3.6124341532       -1.8476243307
 C        -6.7645568351        1.8304825463       -3.0820547671
 C        -6.7825344137        1.0940751404       -1.7631515623
 C        -5.5465259562        1.5130726364       -0.9332155729
 O        -4.7968561394        2.3304405427       -1.3996695592
 C        -5.1968678741        0.9816924074        0.4699528618
 C        -6.2718841146        1.4777048240        1.5262320107
 O        -7.3498860873        0.9139566830        1.5995035990
 C        -5.9206099252        2.7737986541        2.2597074260
 C        -6.5135228581        3.9619677688        1.4053296284
 C        -7.8914370015        4.4852184064        1.8185875994
 O        -8.3881365379        4.2161729233        2.9381295674
 C        -8.7855070305        5.4389797604        0.9504547126
 C        -9.7679201449        4.4195354674        0.2929905669
 O        -9.9261412809        3.3257324174        0.7313912992
 C       -10.4585967624        4.9388920015       -0.9338534244
 C       -11.8506929508        4.3377249375       -1.0481796225
 C       -12.6588294634        4.5504567178        0.1966101753
 O       -12.5443241058        5.5921580755        0.8657353682
 C       -13.6856553421        3.4347622706        0.7771160870
 C       -12.8750017096        2.7116840695        1.9075676824
 O       -11.8852344067        2.0778264402        1.5367783762
 C       -13.3745033348        2.6759908839        3.2928767864
 C       -12.1226070016        2.3628320287        4.3314256061
 C       -11.6521476436        0.8794092462        4.3713618548
 O       -10.5109762292        0.5855755075        4.0173214962
 C       -12.4552493847       -0.2012841350        5.0398770576
 C       -13.5039990281       -0.8129107917        3.9963809094
 O       -14.6264139636       -1.0089788402        4.3858101925
 C       -12.9536385467       -1.3877030178        2.7276707571
 C       -11.5455842045       -1.3457207712        5.5150502323
 C       -13.2268143109        0.2942912909        6.3026731232
 C       -14.8943434346        4.1677596622        1.3885409840
 C       -14.0694304576        2.3616073736       -0.3132227390
 C        -9.6272913622        6.3225436099        1.8620233139
 C        -8.0824035931        6.3286777079       -0.1239695394
 C        -5.3296531419       -0.6033287719        0.4416237045
 C        -3.6792752080        1.2849420984        0.7547977330
 C        -6.4977316093        3.5925421084       -5.5035635405
 C        -5.8538311577        5.2033556160       -3.5010937983
 C       -10.1357084822       10.2564254537       -4.7219991794
 C        -9.5884335936       10.1359516455       -2.2436207942
 H       -13.6870326925        8.8579966608       -3.1994272676
 H       -12.9595655642        8.6315322660       -4.7887016954
 H       -12.8877661089       10.1977574046       -4.0194617498
 H        -9.4970098127        8.0528269220       -5.8283831497
 H       -10.2953472558        6.7112787137       -5.0616841509
 H        -7.2025496537        6.7044014510       -5.4581003933
 H        -8.4527079070        5.6744967565       -6.3767511783
 H        -5.7230913242        1.8459889814       -3.3216157861
 H        -7.3612120311        1.2089647883       -3.7890666277
 H        -6.8032803126       -0.0352220996       -1.7833699336
 H        -7.7022743189        1.3247468787       -1.1865940960
 H        -4.9320840818        2.9579630354        2.4900723782
 H        -6.4423088666        2.7617259045        3.2187262917
 H        -6.4798517192        3.8356822629        0.3184834200
 H        -5.9015399530        4.8029880462        1.6498922346
 H       -10.1026842445        4.6652875576       -1.9665020604
 H       -10.4835894632        6.0414592141       -0.9451475260
 H       -11.7794184997        3.2809379271       -1.3358323935
 H       -12.2795030071        4.9249774851       -1.9010338605
 H       -14.1247383219        1.8972975503        3.4571797779
 H       -13.9812676170        3.5787378481        3.5356171987
 H       -12.5224500691        2.4762026180        5.3418895350
 H       -11.2746745571        3.0496354771        4.1200417488
 H       -13.6657641280       -2.0959022807        2.3055907615
 H       -11.9513606430       -1.8180453330        2.8800647838
 H       -12.9043951708       -0.6721943977        1.9676576132
 H       -11.0463876980       -1.7999652145        4.6637747052
 H       -12.1957225463       -2.0180179289        6.1037724890
 H       -10.6719057054       -0.8382864960        6.0753927809
 H       -13.7723561430        1.1436702347        6.0105953934
 H       -12.5113439460        0.5712434653        7.0419695754
 H       -13.8800498760       -0.4659478771        6.7754227724
 H       -15.4944469115        4.7769420204        0.6575332398
 H       -14.5471743231        4.9632863715        1.9762148946
 H       -15.6384275254        3.5123828548        1.8449321003
 H       -14.8400246468        1.7143067117        0.1005652757
 H       -13.2188278092        1.7436824261       -0.4860810541
 H       -14.3373721541        2.8478194402       -1.2213018794
 H       -10.2460621547        5.6722693874        2.5087822631
 H       -10.2413709564        6.9804822971        1.2395959589
 H        -9.0504430805        6.9871041483        2.4700959623
 H        -7.4380715505        7.1239549953        0.3889518433
 H        -8.7086175770        6.9094883851       -0.7817460818
 H        -7.4368697562        5.7009926795       -0.7471965032
 H        -4.4366853393       -1.0121465612        0.0855794312
 H        -6.1037780112       -0.8240918593       -0.2117273703
 H        -5.6131058783       -1.0694132609        1.3524523621
 H        -3.2488745148        0.9287559627        1.6523358608
 H        -3.4072976868        2.3297598562        0.6974045574
 H        -3.1083793926        0.7322728605       -0.0661820400
 H        -6.9168509790        4.1457200540       -6.3117008975
 H        -6.8635515364        2.6022788052       -5.6036969722
 H        -5.4553144168        3.6600008159       -5.6744850955
 H        -6.1016535338        5.4829295403       -2.4312706227
 H        -5.5901478418        6.0720420966       -4.1299243475
 H        -4.9680341933        4.5994956886       -3.5477177156
 H       -10.7691295229        9.8545352588       -5.5067157299
 H        -9.1351653405       10.4332066447       -5.1199675205
 H       -10.5229005639       11.2333328230       -4.4505704997
 H        -9.6294412200        9.5761306926       -1.2721999915
 H       -10.3398987109       10.9107754243       -2.0415849729
 H        -8.5776111739       10.5477560178       -2.3823926354
 Na       -9.4439813469        1.9489677199        2.5304482931
