117

 C       -12.6947039862        9.2219984146       -3.7925129607
 C       -11.4638835953        8.5591357999       -3.1323157090
 O       -11.5956369584        7.5134855208       -2.5731715202
 C       -10.0753265360        9.1971391506       -3.4562883792
 C        -9.0156557888        8.0231975304       -3.7372742243
 O        -8.2182431084        7.7419138636       -2.8985341623
 C        -9.1676354999        7.3500696427       -5.0851340227
 C        -8.2114640472        6.2040861489       -5.4078913302
 C        -8.2444957708        5.0622990155       -4.4342881262
 O        -9.2984767788        4.6794657553       -3.9916260077
 C        -6.9206941388        4.2245200003       -4.0863681224
 C        -7.1681251590        3.1275707275       -2.9726323135
 O        -7.7258432278        3.5541154061       -1.9460089042
 C        -6.7755939724        1.6935629066       -3.1494135003
 C        -6.8770867117        1.1091061472       -1.7548076581
 C        -5.5955605032        1.5335922094       -0.9634653486
 O        -4.8103323175        2.2928437755       -1.5154519079
 C        -5.1697836773        0.9522166019        0.4931993375
 C        -6.2081301842        1.4965343522        1.5039522882
 O        -7.2755976368        0.9081953885        1.6967670193
 C        -5.9693017759        2.8474343001        2.2932760841
 C        -6.4855372097        4.0256011368        1.4497333631
 C        -7.8936707735        4.5480767437        1.8828961852
 O        -8.3756022249        4.0777808265        2.9523791399
 C        -8.7723169560        5.4119962709        0.9246912658
 C        -9.6822757568        4.4268629803        0.1891776269
 O        -9.9173076896        3.3036812141        0.5805053148
 C       -10.5484325520        4.9587139847       -1.0488061478
 C       -11.9536410334        4.3051786437       -1.0874399631
 C       -12.6816752501        4.5962034537        0.2502623247
 O       -12.4527079424        5.5682905011        0.9246178482
 C       -13.7114842237        3.5058421549        0.7998558882
 C       -12.8689415452        2.7045779729        1.9473745947
 O       -11.9009475391        2.1261816155        1.5391874603
 C       -13.2791446824        2.6828946522        3.4266909685
 C       -12.0651065738        2.3565659104        4.3996708445
 C       -11.5675280770        0.8855658661        4.4590511653
 O       -10.4567506191        0.6405256849        4.0573469641
 C       -12.4651413082       -0.1947695739        5.0956301479
 C       -13.5690821906       -0.9048893693        4.0922821187
 O       -14.7414925601       -0.9656412388        4.3922959969
 C       -12.9837166995       -1.4136657073        2.7697136914
 C       -11.6318716457       -1.3565100501        5.6830872664
 C       -13.2932607973        0.4700557770        6.3091847507
 C       -14.9351800187        4.2150191754        1.3730482198
 C       -14.0833678850        2.3565381873       -0.2584485773
 C        -9.7002515655        6.3626002994        1.7305780693
 C        -8.0048288050        6.2840404372       -0.1203107262
 C        -5.3017749855       -0.6535854884        0.6185257579
 C        -3.7383599050        1.3606132868        0.6843072443
 C        -6.5107745171        3.6763497413       -5.4571498906
 C        -5.8506409777        5.1767030868       -3.4333971036
 C       -10.0656131690       10.0986143746       -4.7111379442
 C        -9.6342446035       10.0143412293       -2.2448049990
 H       -13.6080543509        9.0857583556       -3.2407068178
 H       -12.9298162940        8.8231019164       -4.7664412904
 H       -12.6219963551       10.3259406927       -3.9197055188
 H        -9.0409952031        8.1214167788       -5.8184901879
 H       -10.2166525379        7.0598246826       -5.2365304422
 H        -7.1857045444        6.7340007810       -5.4273368348
 H        -8.3498966922        5.7939198082       -6.4399799895
 H        -5.7541408403        1.5391019698       -3.4734546760
 H        -7.5183877386        1.1605620611       -3.7333887123
 H        -6.8084403921        0.0044300453       -1.6837090412
 H        -7.8200229276        1.3392750459       -1.2896657498
 H        -4.9487792178        3.0639567994        2.4929318840
 H        -6.3992353615        2.9442543545        3.2863260036
 H        -6.5886959357        3.7971674058        0.3958499887
 H        -5.7542164356        4.8312678401        1.5474455136
 H       -10.1302341025        4.8903458629       -2.1029561972
 H       -10.6954540886        6.0240307654       -0.9216653151
 H       -11.8365771186        3.2023828715       -1.2342178549
 H       -12.4641500782        4.7328390442       -1.9112335698
 H       -14.1613847653        2.0530240967        3.7071366076
 H       -13.6681665710        3.6536541462        3.6339821575
 H       -12.3448730153        2.6509390164        5.3997839613
 H       -11.2310703788        2.9792913623        4.0499158215
 H       -13.6494829157       -2.0593644653        2.3100958720
 H       -12.0106333576       -1.9031643252        2.9444521876
 H       -12.8417354769       -0.6146861139        2.0208873921
 H       -11.1738192933       -1.8680380874        4.8037596590
 H       -12.3458306583       -1.9978801318        6.2843457076
 H       -10.7765845937       -0.9348026917        6.2304937509
 H       -13.9280311244        1.2548437713        5.8873176609
 H       -12.6344663301        0.8834359528        7.0555917103
 H       -13.8840158168       -0.2392772522        6.8403336388
 H       -15.6301074974        4.6684050302        0.6255134721
 H       -14.5981354211        5.1361233529        1.8471615181
 H       -15.5999088342        3.5648531724        1.9829095954
 H       -14.7921432459        1.7302571403        0.2013911919
 H       -13.1819077445        1.7876687665       -0.4166488268
 H       -14.4045187611        2.7504192774       -1.2116814960
 H       -10.0380904344        5.8965591032        2.6710751013
 H       -10.5354746693        6.7321576018        1.0904990982
 H        -9.1519065121        7.2933732805        1.9583589495
 H        -7.3086424916        6.9500587173        0.4325745367
 H        -8.6977161435        7.0521439933       -0.5698927070
 H        -7.5426359927        5.7575340130       -0.9278741367
 H        -4.5318566558       -1.1162193773       -0.0101350683
 H        -6.2715776556       -0.8965663374        0.2335278632
 H        -5.2914564512       -0.9963604694        1.6133006460
 H        -3.1992330176        0.9243495648        1.5522285058
 H        -3.6214651314        2.3853698293        0.7541421981
 H        -3.1488239016        0.9378042432       -0.1621598197
 H        -6.5737365809        4.4683848080       -6.2462549173
 H        -7.1199573237        2.8246847715       -5.7660886835
 H        -5.5099172423        3.4398868146       -5.4876402977
 H        -6.1161386151        5.3154162503       -2.3885893718
 H        -5.7569927913        6.1214224877       -3.9429407883
 H        -4.8511436661        4.7204666872       -3.5532451470
 H       -10.5083547375        9.5889445030       -5.5500507685
 H        -9.0660686214       10.4056433953       -4.9067591982
 H       -10.6765845477       10.9918845945       -4.5794508287
 H        -9.2519060090        9.5192739520       -1.3312633250
 H       -10.4589114236       10.5793227309       -1.9017869015
 H        -8.8766668961       10.7629299993       -2.6325819060
 Na       -9.4662539047        2.0163774607        2.4374500896
