117

 C       -12.6433553681        9.3178923170       -3.7379525870
 C       -11.5228040728        8.4569000423       -3.2418613471
 O       -11.6897759754        7.3963627810       -2.6481690117
 C       -10.1055997931        9.1352590375       -3.4966980298
 C        -8.9792965034        8.0393193511       -3.7334516166
 O        -8.0641127751        7.7846119174       -2.9319158097
 C        -9.0075763109        7.3906685947       -5.1573090512
 C        -8.0651761090        6.2314647314       -5.3927881121
 C        -8.2709535798        5.0777520794       -4.3812442391
 O        -9.3611829769        4.6976627949       -4.0678591672
 C        -6.9138720745        4.2486161934       -4.1203618317
 C        -7.2553251866        3.1293895551       -3.0302015373
 O        -7.8214182393        3.5152316453       -2.0469475751
 C        -6.9638539612        1.6324640007       -3.1686391278
 C        -6.8067467387        0.9027562861       -1.7056650367
 C        -5.5295766746        1.3976423228       -0.9875013716
 O        -4.8560723859        2.2678366561       -1.4983200646
 C        -5.2216135031        0.9369597732        0.4781474962
 C        -6.2195198498        1.5554791315        1.4781603172
 O        -7.2727760957        1.0105997876        1.7817907260
 C        -6.0023859492        2.9377355570        2.2162101579
 C        -6.4646750482        4.1669438198        1.4331415036
 C        -7.9434234624        4.5422231754        1.8703426969
 O        -8.3827562430        4.0516705235        2.8820993100
 C        -8.7298399436        5.4417188973        0.9199551903
 C        -9.7743005765        4.4631540752        0.0927921344
 O        -9.8578754173        3.2370102990        0.2924895351
 C       -10.6038938182        4.9857816494       -1.0912411785
 C       -12.0007182099        4.2829579496       -1.0572073950
 C       -12.6859654245        4.4988728886        0.3253640475
 O       -12.4658981706        5.4963061765        0.9356027176
 C       -13.6892220568        3.4640849818        0.9305745848
 C       -12.8291552264        2.7344887884        1.9601064155
 O       -11.8702374613        2.0334252267        1.6304640443
 C       -13.1633132373        2.7780576243        3.5080060722
 C       -12.0382655662        2.3916876295        4.3706527505
 C       -11.6011448027        0.9338455330        4.4598350873
 O       -10.4920663430        0.6040218239        4.0716641506
 C       -12.5353794229       -0.1658146510        5.1680877901
 C       -13.5343579221       -0.8500459677        4.2035301268
 O       -14.7319472452       -0.8830444127        4.3853737836
 C       -13.0164364098       -1.3859470640        2.8654148060
 C       -11.6788231237       -1.3487387277        5.8483585079
 C       -13.3939574091        0.5599509372        6.2742678696
 C       -14.9720235672        4.1860507967        1.3538506259
 C       -14.1528518105        2.4862246947       -0.1432412573
 C        -9.6944482422        6.3927236632        1.7315680045
 C        -7.7934076150        6.1664014993       -0.0416404366
 C        -5.3085219701       -0.5925980415        0.6264214415
 C        -3.8024323192        1.4213076064        0.7436765417
 C        -6.3763785522        3.6783849855       -5.4041387418
 C        -5.8150020357        5.1903792551       -3.4829980495
 C       -10.0612706113       10.0312866622       -4.7276001158
 C        -9.6789792961        9.8997832534       -2.1909238365
 H       -13.5666543744        9.1599813050       -3.2171561833
 H       -12.9442710200        9.2449933385       -4.7644510178
 H       -12.3954895924       10.3241752393       -3.5258929120
 H        -8.9070942862        8.1216034959       -5.9385593213
 H        -9.9739074579        6.9881263668       -5.3040092101
 H        -7.0701692837        6.6340257048       -5.4456124892
 H        -8.2052027821        5.8209283701       -6.3595631072
 H        -6.0077210888        1.4322533969       -3.7098143207
 H        -7.8251444340        1.1589588699       -3.5727305622
 H        -6.9048789007       -0.1433592695       -1.6390681286
 H        -7.6014705104        1.2460999309       -1.0457279342
 H        -4.8535973817        3.0109428688        2.4397467590
 H        -6.4179409084        3.0580309573        3.1977376381
 H        -6.6004306521        3.9247866398        0.3756725436
 H        -5.7133565468        5.0008605430        1.4734476600
 H        -9.9754211902        4.7360678602       -1.9447805658
 H       -10.7140257360        6.0902791371       -1.1283161290
 H       -11.7737419855        3.2091746796       -1.1312249692
 H       -12.6722497157        4.5980696163       -1.8427568306
 H       -13.9753571276        2.0497858031        3.6742328896
 H       -13.6245153958        3.6825190043        3.8739930958
 H       -12.2127696056        2.7629965598        5.3887206846
 H       -11.2008823162        2.9588729572        3.9825874781
 H       -13.8213928646       -1.9891660103        2.4037399514
 H       -12.1444614180       -1.9737797996        2.9672152549
 H       -12.7863856566       -0.5828628985        2.1137941839
 H       -11.1586583116       -1.7544739232        4.9596965888
 H       -12.3440018015       -2.0672574442        6.3278709020
 H       -10.9443146071       -0.9465524846        6.4991731510
 H       -14.1784734335        1.2021036044        5.8281447498
 H       -12.7736126272        1.1105795871        6.9989641006
 H       -13.8560899501       -0.1896848322        6.8734496923
 H       -15.5577394841        4.4521780220        0.5035008929
 H       -14.7549177761        5.2209776366        1.7738493884
 H       -15.6468146385        3.5762319927        1.9638651193
 H       -14.9326393710        1.8774369522        0.2787165157
 H       -13.2965711801        1.9104685750       -0.5048588376
 H       -14.5331147760        3.0782399965       -0.9742215289
 H        -9.8672789474        5.9876431189        2.7279063343
 H       -10.6101445585        6.5898973324        1.1738916189
 H        -9.2576503070        7.4291931233        1.8328342247
 H        -7.0388902187        6.6681494737        0.4703520813
 H        -8.3640179913        7.0058071106       -0.4614195983
 H        -7.4669365412        5.5582834720       -0.9050782979
 H        -4.7969441951       -1.0314183420       -0.2651417182
 H        -6.3274021729       -1.0370339268        0.7879352271
 H        -4.7402781990       -0.7996803618        1.5532627739
 H        -3.3846554127        1.0563717660        1.7020397204
 H        -3.8893153061        2.5292062520        0.8767631187
 H        -3.0903732749        1.1070224706        0.0733662543
 H        -5.8038675609        4.3588788415       -6.0482133950
 H        -7.1594986938        3.1543975875       -5.9788733311
 H        -5.5839848962        2.8997024048       -5.1206431753
 H        -6.1554990008        5.4236302632       -2.5232293017
 H        -5.7070697065        6.1097705209       -4.0272859695
 H        -4.8076937495        4.7510375923       -3.4954412479
 H       -10.5084857718        9.5658440234       -5.5907592941
 H        -9.0695071149       10.4332103455       -4.8887106905
 H       -10.7403704224       10.8430828397       -4.5301623815
 H        -9.1489386799        9.2821989383       -1.4969060287
 H       -10.5028483998       10.3894711121       -1.6176910694
 H        -9.0451054687       10.7346921919       -2.4882903224
 Na       -9.4238210484        2.0333121738        2.3534253022
