117

 C       -12.6549552935        9.1240084739       -3.2647860545
 C       -11.3901759071        8.3007695061       -3.6149803008
 O       -11.4227043344        7.1136159157       -3.7893936591
 C        -9.9600441223        8.9986732834       -3.5415869159
 C        -8.8378741822        7.9607952176       -3.9254456860
 O        -8.0355907620        7.6736739787       -3.1085824380
 C        -8.8548639792        7.1841148866       -5.2472805345
 C        -7.7095142080        6.1760436701       -5.2958849928
 C        -7.9597691159        4.9098655805       -4.4446269726
 O        -9.1265348373        4.5869430641       -4.1922390093
 C        -6.7300099522        4.0820737396       -3.9523588325
 C        -7.4243594742        3.1108784221       -2.8115379144
 O        -8.0134286163        3.6289411696       -1.8775447358
 C        -7.1636646736        1.5762217888       -2.9807321184
 C        -7.1170933115        1.0497830703       -1.5599110945
 C        -5.7152605546        1.4869790611       -0.9693675333
 O        -5.0199428706        2.3776403893       -1.4473920617
 C        -5.3575271583        0.9154822264        0.4832949813
 C        -6.3992825612        1.7367038066        1.3251974925
 O        -7.5369969362        1.2987257298        1.3041938131
 C        -5.9196384402        3.0206602991        2.0782425674
 C        -6.4218363804        4.3355286821        1.4868247371
 C        -7.8855490260        4.4492186107        1.7224154792
 O        -8.4856317947        3.9373074931        2.6132006388
 C        -8.6862818588        5.3111763597        0.6538150448
 C        -9.7444044897        4.3910469392       -0.0607160240
 O        -9.9537123646        3.2541476255        0.3151543787
 C       -10.7560151730        4.8911445947       -1.0657605866
 C       -12.1392396849        4.1079564824       -0.8003718085
 C       -12.8619308860        4.4110724505        0.4900561576
 O       -12.6737310356        5.4449363367        1.1363109245
 C       -13.7904390446        3.3571922705        1.0796475636
 C       -12.7758877246        2.7366819938        2.1029530739
 O       -11.9941883286        1.8941174618        1.7430772011
 C       -12.7511739324        3.2205849228        3.5664350251
 C       -11.6911316441        2.7055323654        4.4885476221
 C       -11.4945069416        1.1394730526        4.5064211420
 O       -10.5873173129        0.5609172268        3.8584555305
 C       -12.5373192496        0.2690723696        5.3647490801
 C       -13.4912350149       -0.4668907296        4.2570681216
 O       -14.6485346939       -0.1176878456        4.2472072261
 C       -12.8988195281       -1.4265305225        3.2955310772
 C       -11.7645124545       -0.8566363093        6.0996348329
 C       -13.4781278170        1.0166575302        6.3673944506
 C       -15.0657594183        3.9994814178        1.7478122245
 C       -14.1667765549        2.2474450493        0.0462762515
 C        -9.5911259847        6.3208980070        1.5115607165
 C        -7.8072479799        6.1961832491       -0.3865930229
 C        -5.4896218516       -0.5994413763        0.6698805899
 C        -3.8527119116        1.2375771272        0.8023097063
 C        -6.2681426659        3.2950955469       -5.2289882274
 C        -5.5872684010        4.9647020421       -3.4438777687
 C        -9.9396630348       10.2169863368       -4.5413857217
 C        -9.7558998677        9.5298738269       -2.0648535253
 H       -13.5040072251        8.5386861940       -3.5547692861
 H       -12.8137795340       10.0158892604       -3.8502521720
 H       -12.7118536916        9.4168408625       -2.2413815875
 H        -8.7056399154        7.8558904869       -6.0895130197
 H        -9.7551054227        6.6561807385       -5.4110209522
 H        -6.8497403580        6.6692652854       -5.0437634125
 H        -7.4981076753        5.9213106147       -6.3030276528
 H        -6.1817254156        1.4001750690       -3.3835720343
 H        -7.9804051438        1.0332171462       -3.5127051094
 H        -7.0502428832        0.0044201069       -1.4861142826
 H        -7.9682242712        1.2940131214       -0.9403816195
 H        -4.8540491591        3.1242527935        2.2592085975
 H        -6.3549129222        2.7319922296        3.1090862328
 H        -6.0845263571        4.4711811884        0.4372633101
 H        -5.8720245987        5.0865974770        2.0670748817
 H       -10.6101711510        4.6571958170       -2.1065030957
 H       -10.8316002213        5.9873029944       -1.0866306527
 H       -11.8832449582        3.0900359818       -1.0378757491
 H       -12.6907062215        4.5377536261       -1.6651552032
 H       -13.7129038534        3.0382290976        4.0057963796
 H       -12.6360512335        4.3497890887        3.5622960776
 H       -11.8083652821        3.1950784792        5.4505560461
 H       -10.7543881660        3.1591281431        4.1840891857
 H       -13.6523439479       -2.0287493848        2.7884130302
 H       -12.2284423182       -2.1870340771        3.7701658196
 H       -12.2580512579       -0.8684283528        2.6595285664
 H       -11.1921136551       -1.4109109277        5.3916251332
 H       -12.4269861183       -1.4487593533        6.7021401848
 H       -11.2188460646       -0.2606575624        6.8856723631
 H       -14.1048368704        1.7169458407        5.8765109438
 H       -12.9227058856        1.5512905436        7.1258296864
 H       -14.1788811792        0.2855475837        6.8476415408
 H       -15.8316516581        4.0879449734        0.9239744242
 H       -14.8773306577        4.9061408185        2.2818988374
 H       -15.4608062723        3.3375303590        2.5378109407
 H       -14.8592002161        1.5497763363        0.5284458251
 H       -13.2976040195        1.7627778748       -0.3266816170
 H       -14.7323928494        2.7419479253       -0.7011786862
 H       -10.5796545658        5.8812850582        1.8160750248
 H        -9.7914145279        7.2717575540        0.9622940034
 H        -9.1224687532        6.5181101049        2.4829609641
 H        -7.1388334263        6.9629493603        0.1006258185
 H        -8.4552436472        6.7057081919       -1.0679118014
 H        -7.2726859656        5.5264784688       -1.0642792659
 H        -4.6084456802       -1.0210218018        0.1808605201
 H        -6.3038720944       -0.9314923575        0.0456055254
 H        -5.4941796147       -0.9620273848        1.7130691339
 H        -3.5119436887        0.6902881834        1.6523689059
 H        -3.6785063923        2.3057489414        0.9085569551
 H        -3.1964835992        0.9090865011       -0.1202546091
 H        -6.3401060093        3.9380969730       -6.1217337416
 H        -6.7516451885        2.3158560756       -5.4413855049
 H        -5.2255551001        2.9644447573       -5.1355675422
 H        -5.8962252646        5.9600227975       -3.0569886834
 H        -4.9958790520        5.2480268049       -4.3211430519
 H        -4.9868533418        4.4399691807       -2.7659708586
 H        -9.9590172598        9.8473515681       -5.5578713431
 H        -9.0322942601       10.8095180643       -4.4314399726
 H       -10.8093183340       10.8313988143       -4.3750117426
 H       -10.0759951110        8.7140507559       -1.4392917593
 H       -10.0719917121       10.5540664033       -1.8480641515
 H        -8.7135631437        9.6202809345       -1.8262013992
 Na       -9.5971555804        1.8677184810        2.1266298671
