117

 C       -12.5350328002        9.0095575314       -3.2204185997
 C       -11.3264393664        8.2067878878       -3.6299198756
 O       -11.4422066163        7.1000858852       -4.1039884249
 C        -9.9241521614        8.9206164612       -3.5080091584
 C        -8.7946860581        7.8888236253       -3.8083453344
 O        -7.9365494693        7.6957118994       -2.9594331786
 C        -8.7844189951        7.2365605621       -5.1970817063
 C        -7.7314628817        6.0939300397       -5.3933617623
 C        -8.0567977432        4.9433478093       -4.4636219541
 O        -9.1382530485        4.5244533002       -4.2032825536
 C        -6.7129534271        4.1039712941       -4.0250226455
 C        -7.1945963836        3.2157064702       -2.8298011647
 O        -7.9340444253        3.7132654582       -1.9931570883
 C        -7.1387446991        1.7000093098       -2.9284659774
 C        -7.0390751712        0.9325172710       -1.6411604941
 C        -5.7411863513        1.3411467488       -0.9176044358
 O        -5.1609545353        2.2837749681       -1.4523253501
 C        -5.3152232259        0.8942026867        0.4696690746
 C        -6.3681102062        1.7255961341        1.3831126784
 O        -7.5512077282        1.3580366399        1.4336295957
 C        -5.8607571905        2.9408056842        2.1079781906
 C        -6.4790350726        4.2896400260        1.4737567495
 C        -7.9182261393        4.4833530567        1.6576591140
 O        -8.5328876401        3.9908578558        2.6461088397
 C        -8.7580418874        5.2938025642        0.6279841173
 C        -9.8804176555        4.3356437725       -0.0546003661
 O       -10.0803796698        3.2131912888        0.3753732228
 C       -10.7933361594        4.9473172056       -1.1367469764
 C       -12.2317407135        4.1728386342       -0.9724698599
 C       -12.8692340466        4.4536422204        0.4511673361
 O       -12.7591160255        5.4379066923        1.1024616169
 C       -13.8610206935        3.2763754522        1.1397456251
 C       -12.8426418408        2.7153347471        2.1801669585
 O       -12.0389529342        1.8728561028        1.8410127842
 C       -12.7240696389        3.4180670585        3.5513373376
 C       -11.5920363842        2.7134645870        4.3899708242
 C       -11.4859030689        1.2118380291        4.4871612969
 O       -10.5011386614        0.6342912618        4.0326508162
 C       -12.4682027429        0.2802080862        5.3224134648
 C       -13.5131244053       -0.3451155073        4.2496858291
 O       -14.6365539495        0.0833558906        4.1661729743
 C       -12.9595194079       -1.4821856424        3.4158620811
 C       -11.6993747864       -0.8292538262        6.2111645455
 C       -13.3351041801        1.1022983021        6.2353786423
 C       -15.0802421715        3.9684242113        1.7653344776
 C       -14.2271837020        2.2025651471        0.1117683379
 C        -9.5764449708        6.3411498019        1.5038473879
 C        -7.8160549336        6.0751359838       -0.2767100796
 C        -5.5207324851       -0.6620810970        0.6909535830
 C        -3.8802516688        1.2515611214        0.7893031765
 C        -6.3375862736        3.2666348049       -5.2202042980
 C        -5.6577071364        5.0417948312       -3.5060986723
 C        -9.8606940689       10.1126078883       -4.5548702753
 C        -9.8058052686        9.5038866033       -2.1166254340
 H       -13.3973326102        8.4853427379       -3.5040450599
 H       -12.5912684248        9.9153046124       -3.7674134128
 H       -12.5702859625        9.3090922985       -2.1763606169
 H        -8.6663123861        8.0425945692       -5.9115720882
 H        -9.7479003622        6.7368411288       -5.3428478324
 H        -6.7598610904        6.5139128794       -5.2181944161
 H        -7.6422198876        5.7175035907       -6.3567017200
 H        -6.3335746231        1.3443208070       -3.5793423323
 H        -8.1649693966        1.3959132510       -3.3059586048
 H        -7.1233217193       -0.1776529990       -1.7189118692
 H        -7.8464523518        1.1888535051       -0.9922216898
 H        -4.7951956404        3.0723819847        2.1833321887
 H        -6.2182582224        2.7022796984        3.1874167544
 H        -6.1840341831        4.4742538077        0.4073486596
 H        -5.9176308931        5.0147096591        2.0801415296
 H       -10.4528565999        4.8776458194       -2.2022458874
 H       -10.8952616159        5.9902998798       -0.9849420975
 H       -11.9725106607        3.0937263424       -1.2038332341
 H       -12.8042183499        4.5754917944       -1.8175221505
 H       -13.6920790212        3.2884074149        4.0847468819
 H       -12.5735283505        4.5034805225        3.3734489314
 H       -11.4609725922        3.1831344943        5.3685966963
 H       -10.6121407079        2.9951015158        3.9394822925
 H       -13.6988169008       -2.0790064918        2.9646057825
 H       -12.2932003023       -2.2289090312        3.9401696749
 H       -12.2627942837       -0.9829715141        2.7137114725
 H       -11.1960526508       -1.5234551015        5.5945170278
 H       -12.4267136923       -1.2892252975        6.8463605703
 H       -11.1023146880       -0.2684925830        6.8786238718
 H       -13.9877375982        1.7797649960        5.6464306309
 H       -12.7265142143        1.7776006161        6.8496816284
 H       -14.0131159550        0.5052052387        6.8434618052
 H       -15.8085339069        4.1988702038        0.9768096998
 H       -14.7845000372        4.8007110464        2.3420161660
 H       -15.5294511886        3.3405402469        2.5215331252
 H       -14.9933450985        1.4969835541        0.4169689017
 H       -13.3023428492        1.6974566209       -0.1968839202
 H       -14.6608148682        2.8262378353       -0.6842809194
 H       -10.4405836645        5.9400123722        2.0614604836
 H        -9.9173206569        7.2049719756        0.8884601499
 H        -8.9086154728        6.7047541451        2.2726793010
 H        -7.0188602363        6.6231220743        0.2641165247
 H        -8.3192349577        6.7437785011       -0.9710972622
 H        -7.4027724757        5.3324048862       -0.8829890460
 H        -4.7746105007       -1.3368070878        0.1336448671
 H        -6.5224566736       -0.8221400913        0.2029333215
 H        -5.4685045307       -0.9463217997        1.7663943932
 H        -3.6417562222        0.6379548192        1.7151796742
 H        -3.6296446969        2.2767710736        0.8990992252
 H        -3.2155298941        0.9048153694       -0.0351945787
 H        -6.0298870863        4.0072585459       -6.0558846311
 H        -7.1088100599        2.5553348559       -5.6426980415
 H        -5.5334244432        2.5938901082       -5.0329151308
 H        -5.9710290972        5.7201295933       -2.7355747875
 H        -5.3455070698        5.6862065028       -4.2882123235
 H        -4.8270316165        4.4447964205       -3.1516046421
 H        -9.9252833647        9.5709395959       -5.4942043761
 H        -8.9154830831       10.6208900754       -4.5740428672
 H       -10.6866276660       10.8413259384       -4.4745378003
 H        -9.9618425230        8.7304060278       -1.3659258694
 H       -10.4118029538       10.3355619738       -2.0679947726
 H        -8.8339713264        9.9675139753       -1.8763450554
 Na       -9.5622829063        1.8881382713        2.1457439425
