117

 C       -12.5118902345        8.9247075998       -3.1862423944
 C       -11.3402539331        8.1642814421       -3.7509302678
 O       -11.4732173827        7.0741315277       -4.3314891726
 C        -9.9365373066        8.8471453932       -3.5397753298
 C        -8.7068182939        7.8737629572       -3.7340786874
 O        -7.8229756017        7.6415135207       -2.8756806551
 C        -8.7500358087        7.3368929887       -5.1319786262
 C        -7.8385417043        6.1034341131       -5.4346204100
 C        -8.0427389271        4.9229904876       -4.5507178047
 O        -9.1515999088        4.5518965887       -4.2332610371
 C        -6.7391986896        4.0919685968       -4.1052046994
 C        -7.2898465365        3.1853304894       -2.9141048985
 O        -7.7652523564        3.7166455955       -1.9258794089
 C        -7.2513876902        1.6329957444       -3.0098768286
 C        -7.0051041782        0.8263628268       -1.7125642880
 C        -5.7757271766        1.4334794007       -0.9284723466
 O        -5.0760181903        2.2517289243       -1.4327936299
 C        -5.3540177645        0.8731896755        0.5713581392
 C        -6.2788848256        1.6695971863        1.5100578450
 O        -7.4317815449        1.2620130520        1.4718568053
 C        -5.9277968265        2.9733537170        2.3012910124
 C        -6.4512098830        4.2155505927        1.4310757482
 C        -8.0264529603        4.3601059219        1.6420019486
 O        -8.5484181890        4.0045235949        2.7384021480
 C        -8.8288758257        5.2947829792        0.6600390688
 C       -10.0010353982        4.4048728289        0.0269458463
 O       -10.1143495085        3.2272346883        0.3419354267
 C       -10.9242024014        4.9467426431       -1.0186999982
 C       -12.3638469316        4.3131660892       -0.9599621820
 C       -12.9471179067        4.4643938499        0.3556117100
 O       -12.7243747858        5.5065584885        0.9768019991
 C       -13.7970128794        3.3205229622        1.0425840726
 C       -12.8266992693        2.7069877582        2.2068500090
 O       -12.0865840791        1.7678926443        1.9058182277
 C       -12.7174180350        3.3783641691        3.5727106796
 C       -11.5171295525        2.7183767858        4.3833986980
 C       -11.3906437703        1.2320903426        4.5221603241
 O       -10.3970759133        0.6909149351        4.0940166725
 C       -12.4845304868        0.4208762376        5.3318634392
 C       -13.4343854571       -0.2904380490        4.2783890471
 O       -14.5064873539        0.2326664621        4.0521739677
 C       -13.0312083288       -1.5573870619        3.4606151364
 C       -11.7122683397       -0.6289527440        6.1226112413
 C       -13.2520251976        1.3498221203        6.2805667266
 C       -15.0183592320        3.9223777257        1.7276642593
 C       -14.3065506063        2.1330025155        0.1436778433
 C        -9.6138932018        6.3805986189        1.4778575398
 C        -7.9223519986        6.0317025686       -0.2434773571
 C        -5.6738607525       -0.6840071285        0.7050926699
 C        -3.8449261831        1.1614543353        0.7076920174
 C        -6.3169963093        3.2843893638       -5.2873672858
 C        -5.6210262240        5.0644798984       -3.5203885178
 C        -9.8009369158        9.9623128754       -4.5881394036
 C        -9.7912894603        9.5008233440       -2.1165093430
 H       -13.4853920413        8.4595573563       -3.3556100848
 H       -12.5596961575        9.9538241578       -3.5289779733
 H       -12.3299241039        9.0180356748       -2.1195374591
 H        -8.5053564212        8.1878521405       -5.7970095404
 H        -9.7927288897        6.9524864705       -5.3264809371
 H        -6.7572022873        6.4568464619       -5.5157682901
 H        -8.0214563875        5.6742565874       -6.4489358165
 H        -6.3418033092        1.3849338538       -3.6265391154
 H        -8.1563148284        1.2586631731       -3.4911551075
 H        -6.8882018198       -0.2873612758       -1.7819381175
 H        -7.8246309953        0.9432572759       -0.9732161131
 H        -4.8138476975        3.0598994359        2.4465320983
 H        -6.3707814986        2.9192224188        3.2494740581
 H        -6.2182618073        4.1011479144        0.3732830327
 H        -5.8480795587        5.0566561327        1.8254943668
 H       -10.4332517913        4.7436376938       -1.9922782470
 H       -11.0140296167        6.0576935944       -1.0268613347
 H       -12.1980036738        3.2491829000       -1.2523375621
 H       -12.8782359243        4.8109210166       -1.7781991221
 H       -13.7023138921        3.2773685941        4.1616619171
 H       -12.5570002324        4.4120958770        3.3099194447
 H       -11.5376897650        3.1228736711        5.4121998410
 H       -10.5296739136        3.0847655459        4.0422987255
 H       -13.9650758756       -1.9940883900        3.0602782393
 H       -12.6178474858       -2.3759581037        3.9749943000
 H       -12.2700817770       -1.3158408199        2.6779378188
 H       -11.2226797503       -1.2001533887        5.3443968902
 H       -12.4331340500       -1.2341518251        6.6393709514
 H       -11.0744243602       -0.1544356466        6.7864504076
 H       -13.9186933931        2.1036865761        5.7776325532
 H       -12.5276820198        1.9606450535        6.8545531269
 H       -13.8886535815        0.7990414245        6.9351367263
 H       -15.6530417714        4.2746225772        0.9931791816
 H       -14.7074266506        4.7081085605        2.4308926828
 H       -15.5091250819        3.2294700232        2.3688811682
 H       -15.1131431126        1.6170091335        0.6672590917
 H       -13.4598683189        1.4188916832       -0.0089982557
 H       -14.7601506267        2.5701603744       -0.7753254972
 H       -10.2173105970        5.9596895363        2.2486554564
 H       -10.2742342869        6.9107268626        0.8122218996
 H        -8.9365430889        7.0986841973        1.9539560179
 H        -7.1880524353        6.5252260520        0.3210195660
 H        -8.4859195869        6.7484207619       -0.8647935382
 H        -7.4056930679        5.3206975334       -0.9014752641
 H        -5.0992783138       -1.3147674584       -0.0121545379
 H        -6.7723850250       -0.9178371997        0.6055998912
 H        -5.2384241464       -0.9253869330        1.6984169258
 H        -3.5061904354        1.1066084127        1.7712861533
 H        -3.6137024161        2.1542103693        0.2489705663
 H        -3.3106486067        0.5279992401        0.1104893886
 H        -5.7445239990        3.9509032998       -5.9271018595
 H        -7.0609587574        2.8148766431       -5.9136670056
 H        -5.6764226586        2.4071748719       -5.0151419053
 H        -5.8280621783        5.5057534954       -2.5902622287
 H        -5.4365371690        5.8883896535       -4.1821421148
 H        -4.7078577845        4.4425898764       -3.3840969820
 H        -9.9982671229        9.5745791787       -5.5975201577
 H        -8.7601595806       10.3019596425       -4.6021201579
 H       -10.4440105105       10.8252446033       -4.3460863852
 H        -9.7032586616        8.7608470667       -1.3466938768
 H       -10.6089045107       10.2172048029       -1.9519759352
 H        -8.9259032407       10.1482292115       -2.0176375446
 Na       -9.6056773508        1.9007850351        2.2666503348
