117

 C       -12.5597599822        8.8112882040       -3.1301285022
 C       -11.3003992476        8.1121897576       -3.7080477751
 O       -11.5023377024        7.1973742657       -4.4639558687
 C        -9.8804195955        8.8215627928       -3.5518920745
 C        -8.6871368755        7.8295275281       -3.7667413062
 O        -7.8842353785        7.6117278246       -2.9131673733
 C        -8.6523965509        7.3128219618       -5.2123079150
 C        -7.7816067787        6.1073713363       -5.5665750945
 C        -8.0209009120        4.9062139208       -4.5790528599
 O        -9.1653248301        4.5888529856       -4.2388032076
 C        -6.8061211207        4.0082158155       -4.1181888835
 C        -7.2814804516        3.0703877828       -2.9160932493
 O        -7.6253267808        3.5454162430       -1.8452623672
 C        -7.2537377479        1.5547571445       -3.0656235876
 C        -6.9787558060        0.9223905707       -1.6980766424
 C        -5.7402040743        1.4376911958       -0.9559281443
 O        -5.0005831830        2.2644722324       -1.4252579540
 C        -5.3654861978        0.8720750855        0.5287110679
 C        -6.3447937384        1.6000370217        1.4967710534
 O        -7.4751105482        1.1927414520        1.6493080025
 C        -6.0448206005        2.9275769545        2.2869158717
 C        -6.5954463251        4.0650943556        1.4482255485
 C        -8.0687483996        4.4476004220        1.7971616532
 O        -8.5282512546        3.9339124356        2.7719829754
 C        -8.8593917440        5.3545705457        0.7562065883
 C        -9.9850676014        4.3340831024        0.0118476586
 O       -10.1798895186        3.2008102307        0.3677922117
 C       -10.9460322069        4.9781125014       -1.0782909532
 C       -12.3608885008        4.3304375594       -1.0690539315
 C       -12.9518094420        4.4570164359        0.3575964271
 O       -12.8030332175        5.5031939722        0.9897987707
 C       -13.7648703397        3.3040432860        1.1401700344
 C       -12.6961116592        2.7119321224        2.1297336854
 O       -12.1403795964        1.6464403034        1.8788761084
 C       -12.6843695235        3.2778547611        3.5287182724
 C       -11.4933978531        2.9098959925        4.3738385736
 C       -11.3236682611        1.3343857122        4.5403920061
 O       -10.3656118980        0.7088311184        4.0977440502
 C       -12.3685879728        0.5248090758        5.2906058365
 C       -13.4286440471       -0.1599490867        4.2210846666
 O       -14.4566644326        0.4126089234        3.9318019680
 C       -13.0710154286       -1.4767820105        3.6118909808
 C       -11.6452585581       -0.5823502747        6.1264240549
 C       -13.2022994827        1.4736021052        6.2916498225
 C       -15.0450641646        3.9765778722        1.7816423553
 C       -14.2257122206        2.1696201603        0.1665536598
 C        -9.6868534095        6.3820261687        1.6112175991
 C        -8.0490631621        6.0990988519       -0.3329920574
 C        -5.7430077214       -0.5591217093        0.6755840032
 C        -3.8193101797        1.0707867218        0.7223869840
 C        -6.2104432683        3.3764285118       -5.3969000084
 C        -5.6963993492        4.8914589967       -3.5395567411
 C        -9.7871032718        9.9048200224       -4.6169022779
 C        -9.7583493567        9.4805906746       -2.0677026448
 H       -13.4838679839        8.3501994145       -3.5702463879
 H       -12.5713926555        9.9212388210       -3.3093223771
 H       -12.6252899279        8.7517582025       -2.0426472119
 H        -8.2498343274        8.1959498828       -5.7871603898
 H        -9.6541642135        7.0292803698       -5.5846990295
 H        -6.7164217750        6.4413995061       -5.7096298571
 H        -8.1030584648        5.7364596324       -6.6428380891
 H        -6.4934794075        1.1655643326       -3.7657553404
 H        -8.2293699411        1.2447316484       -3.3960728483
 H        -6.6998791662       -0.1328151497       -1.7774515526
 H        -7.8465402686        0.8934316872       -0.9502333880
 H        -4.9589346968        3.0359185263        2.3459636803
 H        -6.4646900228        2.8631656426        3.2515927755
 H        -6.6290400900        3.7465503007        0.4272025126
 H        -5.8217017812        4.8320583833        1.5169369594
 H       -10.3849815048        5.0678561853       -1.9972116930
 H       -11.2328604306        6.0632255646       -0.8257580080
 H       -12.2178613049        3.3407490231       -1.4169812649
 H       -12.9489793923        4.8657622172       -1.8188282936
 H       -13.6058650792        2.8637715572        3.9748301931
 H       -12.7809034827        4.3749772494        3.3988409139
 H       -11.6829046255        3.3561080007        5.3679780777
 H       -10.5677635016        3.3988032929        4.0606087387
 H       -13.9489634965       -1.9597496395        3.1354062440
 H       -12.8480777629       -2.1920115133        4.3783187517
 H       -12.1970991850       -1.4604119961        3.0020067816
 H       -10.9991354302       -1.1318207849        5.4489585848
 H       -12.4696343425       -1.2008126525        6.4493794449
 H       -11.0924577307       -0.0866969948        6.9691090039
 H       -13.8504979112        2.1888788411        5.8219533255
 H       -12.5918557604        2.0580487014        6.9782643283
 H       -13.8758429361        0.7918934960        6.8416212584
 H       -15.5352252452        4.3652735771        0.9093451923
 H       -14.7704168876        4.7970532944        2.4379289576
 H       -15.6803471325        3.3493986709        2.3786907469
 H       -15.0051464035        1.5922050973        0.7187015263
 H       -13.3816583367        1.4872385783        0.0251881137
 H       -14.7024755591        2.5785185394       -0.7218224640
 H       -10.0293262090        6.0034122770        2.5521408996
 H       -10.5563599980        6.6724367597        1.0768948609
 H        -9.0889989623        7.2650952970        1.7936802660
 H        -7.3929115736        6.7478342119        0.2337207217
 H        -8.7335935051        6.7041696620       -0.9070776355
 H        -7.3607062240        5.5115574720       -0.9935613424
 H        -5.4481591476       -1.1315463056       -0.1625222742
 H        -6.7743263328       -0.7412240085        0.9070653189
 H        -5.0559181324       -0.8612719384        1.4697246154
 H        -3.5852601473        1.3699181529        1.6807879694
 H        -3.5179932178        1.8304148173       -0.0216926782
 H        -3.2620068911        0.1930175483        0.3561899398
 H        -5.8033800904        4.1011907193       -6.0103962758
 H        -6.8931707869        2.8266516460       -5.9837065353
 H        -5.4629970110        2.5851298775       -5.1379387687
 H        -5.8425217877        5.3329125496       -2.5398615316
 H        -5.5026633546        5.7392833691       -4.2266999832
 H        -4.8338730684        4.2602033970       -3.4447436305
 H       -10.1606958722        9.6273135258       -5.6081031817
 H        -8.7319328794       10.2299128438       -4.7537358906
 H       -10.3101244172       10.7371868071       -4.1737240688
 H        -9.6563816245        8.7403939630       -1.2805091287
 H       -10.6724173809       10.1642912405       -1.8995376117
 H        -8.9130839774       10.1347560997       -1.9562398334
 Na       -9.6166560146        1.9181392512        2.3668098089
