117

 C       -12.2833894673        8.4303788106       -2.7484837378
 C       -11.3347480056        8.1674681449       -3.9197531295
 O       -11.5440170392        7.4546322070       -4.8494398283
 C        -9.8702505439        8.8309746378       -3.7190863483
 C        -8.8578539966        7.6370882062       -4.0727017150
 O        -8.2274745151        7.2162585387       -3.1667583485
 C        -8.7671813176        7.0344691763       -5.4889161963
 C        -7.5725619554        5.9784809364       -5.4928647371
 C        -7.9118755537        4.8790721488       -4.4859307894
 O        -9.0405436105        4.7546027357       -4.0723887524
 C        -6.6900949899        3.9643306757       -4.0067555698
 C        -7.2032283533        2.9850574157       -2.8767731443
 O        -7.8648892843        3.4151492908       -1.9575972873
 C        -6.8790835930        1.4700393963       -3.1089806394
 C        -6.8411348520        0.6595911257       -1.8371106716
 C        -5.6343296642        1.2119013770       -0.9689491279
 O        -4.8953308361        2.1008133343       -1.3922308089
 C        -5.5465561622        0.5801563679        0.5408078676
 C        -6.5701188043        1.3994509923        1.3502076042
 O        -7.6291775104        0.8699440201        1.6174119820
 C        -6.2488846156        2.8531658762        1.8565499835
 C        -6.9750767460        3.8919175909        0.9956114267
 C        -8.1835045254        4.5034861294        1.7677934785
 O        -8.3822294364        4.1665945837        2.8915229841
 C        -9.2086527404        5.4519267904        1.0001864406
 C       -10.0972122256        4.4923169469        0.2242432454
 O       -10.0884089159        3.2849840432        0.4365132284
 C       -10.8740302481        4.9940109603       -0.9898416685
 C       -12.2653163148        4.2385874030       -1.0626359657
 C       -12.9513121569        4.4271419702        0.3116468056
 O       -12.8337011507        5.4638846723        0.9100822061
 C       -13.8272461112        3.1588375234        1.0017373425
 C       -12.7538099367        2.7506192327        2.0371205284
 O       -11.9236500010        1.9579665743        1.6613196399
 C       -12.5939000289        3.5946282297        3.4235235737
 C       -11.4847352038        3.1630611569        4.4777168209
 C       -11.3074902155        1.6161215013        4.7490595053
 O       -10.3125869126        1.0989670307        4.2189671368
 C       -12.3184617059        0.8034191647        5.5733026392
 C       -13.3371429104        0.2505028638        4.3669560894
 O       -13.8732910612        1.1623916009        3.7944624034
 C       -13.3270872687       -1.1850310864        3.9306762659
 C       -11.6159459900       -0.3480219998        6.3887177711
 C       -13.0977893739        1.6827814218        6.5728298621
 C       -15.1051026408        3.6825456776        1.6749336899
 C       -14.2126983684        2.0472836145       -0.0369211122
 C       -10.0723938744        6.2578384407        1.9998283769
 C        -8.4443594573        6.5453607427        0.1049230341
 C        -5.7735301171       -0.9621440248        0.6658933648
 C        -4.0269124933        0.8216159785        0.9469182787
 C        -6.2438317666        3.1943252393       -5.3155829140
 C        -5.4481391047        4.8053812860       -3.5975142827
 C        -9.8014373525       10.0652004195       -4.6612696002
 C        -9.5893326835        9.2599031830       -2.2834246317
 H       -13.2902093015        8.1960053743       -3.0278009251
 H       -12.1645218112        9.3979648167       -2.2862414274
 H       -12.0988210957        7.7232051674       -1.9814012303
 H        -8.3741090686        7.8345242053       -6.1697145856
 H        -9.7038140879        6.5618903362       -5.8134140344
 H        -6.6491694968        6.5506335662       -5.2973023199
 H        -7.6044242909        5.5732989012       -6.5844231196
 H        -5.8826785148        1.4264359962       -3.5838192172
 H        -7.4899809633        0.9661275869       -3.8627298284
 H        -6.5809044068       -0.3814230460       -2.0748292582
 H        -7.8308216526        0.7596856346       -1.2451672585
 H        -5.2141630840        2.8765313937        1.7518953173
 H        -6.5340422576        2.9299629510        2.8887570933
 H        -7.0813583310        3.4585109513        0.0085209183
 H        -6.2880032922        4.7784906812        0.9259760308
 H       -10.2573696681        4.8063118908       -1.8758579877
 H       -11.0793535443        6.1166153713       -0.9442576907
 H       -11.9338767234        3.3011543181       -1.4563704826
 H       -12.8730162951        4.6476391582       -1.8925726386
 H       -13.5668338365        3.5253058923        3.8606761858
 H       -12.2332200518        4.5729971975        3.0761909828
 H       -11.7707415155        3.6879682251        5.4154355682
 H       -10.4767683138        3.5007943214        4.1905197959
 H       -13.4357768607       -1.3470264078        2.8554601399
 H       -14.2064622390       -1.6819869912        4.4290860873
 H       -12.4952973572       -1.7631352200        4.2931628427
 H       -10.9752999286       -0.9213105852        5.8236479689
 H       -12.3826312597       -0.8783827228        6.8313948989
 H       -10.9610028262        0.1879546622        7.0724474037
 H       -13.6770883947        2.4435613739        6.0821896633
 H       -12.4215104537        2.2499071547        7.2340480529
 H       -13.7649182701        1.0869954195        7.2738150989
 H       -15.8331569991        4.0345429361        0.9384752718
 H       -14.8170677189        4.5797835700        2.1474197390
 H       -15.6187422993        2.9889213228        2.3317830293
 H       -15.0277250352        1.4504389482        0.4612447592
 H       -13.3157989126        1.4351699691       -0.1748003997
 H       -14.5566314398        2.4743331123       -0.9839628114
 H       -10.6535462557        5.5851250498        2.6399616813
 H       -10.8543160079        6.7882292214        1.4606999225
 H        -9.5073721111        6.9717190411        2.5990099727
 H        -7.5451281075        6.8604259656        0.6511191711
 H        -9.1045913062        7.3506554270       -0.0191147879
 H        -8.0485231460        6.1380784697       -0.8107972759
 H        -4.9293953836       -1.5461984003        0.1907646592
 H        -6.8090294923       -1.2788719908        0.3916312961
 H        -5.8229286986       -1.1535648765        1.7923955821
 H        -3.7597586094        0.3916899999        1.8629793290
 H        -3.8699977951        1.8853498774        0.9208683080
 H        -3.3578289885        0.4085976820        0.0980201413
 H        -5.9927801140        3.8648088373       -6.1516938069
 H        -7.1559558418        2.6442379381       -5.6801960168
 H        -5.3818906266        2.5107655074       -5.2465091708
 H        -5.6873840862        5.6880026430       -2.9797643961
 H        -4.9237382097        5.0707514747       -4.5128085736
 H        -4.7763605064        4.2489685072       -3.0267756987
 H        -9.6270440739        9.8575895741       -5.7186540161
 H        -8.9789439321       10.7053607546       -4.2871381510
 H       -10.6906609130       10.6585703198       -4.5258256790
 H        -9.9900442262        8.5039426849       -1.6332082851
 H       -10.1521371143       10.1106246252       -1.9136171368
 H        -8.5407329243        9.2596667028       -2.1681193605
 Na       -9.4541415576        1.8647041715        2.3272867358
