117

 C       -12.0442130946        7.9207565625       -2.8156816933
 C       -11.4159120746        8.4548621974       -4.1235229289
 O       -11.7948883539        8.1975204319       -5.2204099272
 C        -9.9653411068        9.0022552001       -3.9731123798
 C        -8.9829141182        7.7233875341       -4.1098376385
 O        -8.2819718487        7.3980534189       -3.1889941426
 C        -9.0424737709        6.9276681320       -5.3736989973
 C        -8.0519372415        5.7657510325       -5.4406887730
 C        -8.0329619208        4.6234390982       -4.3874743888
 O        -9.0797004224        4.2158966708       -3.9551548671
 C        -6.7304104735        3.7858958824       -4.0531676455
 C        -7.0284421480        2.6902217948       -2.9449857304
 O        -7.6103194362        2.9943039256       -1.9257789155
 C        -6.4993375748        1.2071768886       -3.2980658500
 C        -6.3895811437        0.3232717506       -2.0235847424
 C        -5.4288546395        0.8297289969       -1.0125668565
 O        -4.5034907223        1.6158653488       -1.1781269652
 C        -5.6611362163        0.3117115943        0.5072636779
 C        -6.7666655015        1.2850706955        1.1937205253
 O        -7.8558149271        0.8441228700        1.4628433041
 C        -6.2336527809        2.7019890098        1.7299237947
 C        -6.6631411891        3.9518940891        1.0002222711
 C        -7.9574348411        4.4198069158        1.6894049750
 O        -8.2682203500        4.2002097488        2.8608716315
 C        -9.0242886989        5.4258290896        0.9593142320
 C        -9.8934872075        4.3643432342        0.0811723934
 O        -9.8004104949        3.2196316078        0.3491508456
 C       -10.7411315202        4.9534975868       -1.0229862644
 C       -12.2025942174        4.3708035130       -1.1076955223
 C       -13.0191329291        4.4743163937        0.1811481375
 O       -13.3224567419        5.5407969866        0.7316026264
 C       -13.5640516810        3.0947746172        0.9527818091
 C       -12.5785834028        2.9044030905        2.0693878573
 O       -11.7461951951        1.9962176360        2.0281168443
 C       -12.7569618849        3.8085449779        3.3033140015
 C       -11.6536707848        3.5444167732        4.3458686258
 C       -11.4473595767        2.0557924686        4.7968611025
 O       -10.4852133509        1.4367708539        4.3806391072
 C       -12.4011044579        1.3459232077        5.7680495211
 C       -13.5175305215        0.6074242931        4.8126405807
 O       -14.3996652829        1.2916276187        4.3325644762
 C       -13.4482148717       -0.8973703414        4.6570594831
 C       -11.6396514241        0.2548506831        6.5178603262
 C       -13.2385075071        2.3229689271        6.6824656069
 C       -14.9840285505        3.3888929489        1.4227882888
 C       -13.5845621277        1.8293099070        0.0729631016
 C        -9.9070672583        6.0374347518        1.9908275319
 C        -8.2337960692        6.3844473483        0.0954460844
 C        -6.2078352134       -1.1336787488        0.6377836308
 C        -4.3322225499        0.4063414945        1.2912777656
 C        -6.2644356466        3.1577234118       -5.4195313162
 C        -5.6397529504        4.7327280913       -3.4745253726
 C        -9.7129853391       10.0014933759       -5.0951384988
 C        -9.6187193525        9.8186986810       -2.6860539926
 H       -12.4651344562        6.9171926260       -2.9760310658
 H       -12.8706497843        8.5465478144       -2.5037961205
 H       -11.3548711846        7.8498968594       -1.9918301637
 H        -8.8999188997        7.6042581528       -6.2339448391
 H       -10.0883101105        6.4694050519       -5.4615114082
 H        -7.0452144109        6.2782927973       -5.3747291384
 H        -8.1063199139        5.3556687335       -6.4852846068
 H        -5.5326676584        1.3319243348       -3.7980289317
 H        -7.0587687917        0.7361786950       -4.0931358978
 H        -5.9606657829       -0.6910167133       -2.3086869607
 H        -7.3173341441        0.3219992199       -1.4759597308
 H        -5.1110065671        2.6013124817        1.7076286009
 H        -6.4508697982        2.7947680215        2.7615164465
 H        -6.8163115930        3.7109525945       -0.0322022139
 H        -5.8641870097        4.6613260199        1.0045494962
 H       -10.2235418979        4.7949036716       -2.0127354370
 H       -10.9555332106        6.0111034698       -0.8633785198
 H       -11.9999477125        3.3575534991       -1.4144400052
 H       -12.8474914927        4.7671670857       -1.8931342738
 H       -13.7674584751        3.5055172661        3.6521797648
 H       -12.7050963820        4.7920642589        2.8829210521
 H       -11.8682547067        4.1374688190        5.2371441541
 H       -10.6356841258        3.8042616988        4.0366300747
 H       -14.3258862124       -1.3350841757        4.0876234894
 H       -13.2914883415       -1.4257485477        5.5327543802
 H       -12.6057032911       -1.2111034943        4.0252751930
 H       -11.2306765990       -0.3443398176        5.7101341253
 H       -12.2716973996       -0.3200357768        7.1714164863
 H       -10.9229631128        0.6921315726        7.1719942005
 H       -13.9496582103        2.9920647878        6.1419924652
 H       -12.5666843900        2.9201300456        7.3243664342
 H       -13.8933049692        1.8605811886        7.3941786052
 H       -15.6295049748        3.3530030962        0.6005063210
 H       -15.0065014489        4.3838746926        1.9142235316
 H       -15.3223099827        2.6291893727        2.1018044856
 H       -14.1930317930        1.1216290529        0.6398294321
 H       -12.5456483774        1.4528472029       -0.1103356828
 H       -14.0173072528        1.9905202995       -0.9521673356
 H       -10.2490978649        5.2671217701        2.6519940166
 H       -10.7358876786        6.6015743068        1.6111697715
 H        -9.3553666876        6.7340682808        2.6463369518
 H        -7.5700945310        6.8206230966        0.7650924270
 H        -8.8988508611        7.2272843514       -0.1538180810
 H        -7.7805271904        5.9920744547       -0.8464716927
 H        -5.5200931388       -1.7877023672        0.0832954679
 H        -7.2426638093       -1.3814216419        0.2901423977
 H        -6.0529123141       -1.4838850592        1.7028694404
 H        -4.5753443304        0.5302478405        2.3239941379
 H        -3.7199431434        1.2633832794        0.9009992010
 H        -3.7782685765       -0.5035434403        1.1829503074
 H        -6.1374937728        3.9124476588       -6.1418535304
 H        -6.9903698838        2.4672485533       -5.7864303378
 H        -5.2683725705        2.6185949693       -5.2954093031
 H        -6.1217225408        5.4947431172       -2.9213930921
 H        -5.0871925101        5.1862584593       -4.2757336965
 H        -4.8877627739        4.2201357915       -2.8291096001
 H        -9.7574155995        9.4900559885       -6.0603598453
 H        -8.7432975576       10.4737634731       -4.9725279457
 H       -10.4831782530       10.7900703413       -5.1176922887
 H        -9.7369793992        9.1267367955       -1.8746176848
 H       -10.2975093629       10.7105658223       -2.5031206713
 H        -8.6240187378       10.1892101903       -2.6897386015
 Na       -9.4749343681        2.0176545705        2.4182019864
