117

 C       -12.0537751335        7.9074488875       -2.8965759857
 C       -11.3153728604        8.3799569476       -4.1151214402
 O       -11.8335432167        8.3186362922       -5.2082885167
 C        -9.9036082612        9.0304696431       -4.0103968181
 C        -9.0121681780        7.7564551700       -4.0991381620
 O        -8.3184359984        7.4275061152       -3.1745429616
 C        -9.1478514715        6.8026601535       -5.3884708188
 C        -8.0086315895        5.6879800633       -5.4054060878
 C        -8.1395366069        4.5525980296       -4.3549457352
 O        -9.2018201114        4.1686045319       -3.8954770176
 C        -6.7559630316        3.8469506509       -4.0229614987
 C        -6.9782765354        2.7191491699       -2.9631525709
 O        -7.5843622645        2.9319711621       -1.9346422790
 C        -6.4423999681        1.3401039345       -3.2536139876
 C        -6.2966266733        0.1901280657       -2.1974527688
 C        -5.4309498117        0.7371768803       -0.9966016995
 O        -4.5376947621        1.5172545827       -1.2076063556
 C        -5.7021749542        0.2668357352        0.5959145852
 C        -6.6232404763        1.2819487195        1.2837696716
 O        -7.7967147320        0.9920117988        1.4424968775
 C        -6.1078111284        2.6027771815        1.8617830436
 C        -6.7495538420        3.8751138082        1.0338620688
 C        -7.9435680730        4.4561073018        1.6861439837
 O        -8.2214373850        4.1315752431        2.8305407162
 C        -8.9378255930        5.4249034200        0.9405595463
 C        -9.8820701626        4.3765988947        0.0790785431
 O        -9.9108803177        3.1857221268        0.3264364362
 C       -10.6913578066        4.9407331560       -1.0269809266
 C       -12.1721435962        4.3445276712       -1.1439912909
 C       -13.0319763979        4.3891731673        0.1920171249
 O       -13.2480075861        5.4418669706        0.6801896734
 C       -13.6108899955        3.1115000113        0.8547198133
 C       -12.6305480311        2.8502673672        2.0713058436
 O       -11.7406259501        2.0292446984        1.9298346989
 C       -12.7328660216        3.7520945772        3.3261795185
 C       -11.6352967963        3.5299577653        4.3709830660
 C       -11.5160737540        2.1101367407        4.8489701641
 O       -10.6090290271        1.3799309412        4.4930493433
 C       -12.4740188759        1.4292461492        5.8648337912
 C       -13.5402837109        0.6660993419        4.9073976284
 O       -14.3679751060        1.3391742178        4.3349303866
 C       -13.4401453394       -0.7828666518        4.6425131068
 C       -11.6051146557        0.4443280864        6.6730126070
 C       -13.2181113181        2.3310042374        6.8862929869
 C       -15.1159199560        3.4525927055        1.2991066818
 C       -13.5119689734        1.8347291248       -0.0122424995
 C        -9.8001866805        6.1438810098        1.9124236704
 C        -8.2592279437        6.3707165045       -0.0681297470
 C        -6.3179588628       -1.1158361125        0.7123254721
 C        -4.2865700619        0.2529022467        1.2258920319
 C        -6.2467869879        3.2706566576       -5.3963772015
 C        -5.5426850889        4.7379287489       -3.5126656924
 C        -9.7336675035       10.0280664798       -5.2631717423
 C        -9.6158466689        9.8825563658       -2.6970419526
 H       -12.6465394330        6.9731660994       -3.0805645353
 H       -12.7955987598        8.6829644814       -2.5555482630
 H       -11.3559138159        7.7097725173       -2.0800634665
 H        -9.1978158354        7.3572674501       -6.3301274736
 H       -10.0645348941        6.2161799719       -5.3224558165
 H        -7.0741393151        6.1239503191       -5.3627581317
 H        -8.0724302077        5.2446067191       -6.3873292516
 H        -5.5028963855        1.4532820124       -3.8653768823
 H        -7.0889461779        0.9313058915       -4.0275634035
 H        -5.7706057461       -0.5559718978       -2.7277810746
 H        -7.2610934420       -0.0719959909       -1.8156594515
 H        -4.9927762601        2.5840855059        1.8940991309
 H        -6.4024655771        2.6520011044        2.9472666300
 H        -6.8491354661        3.5847864394        0.0055501911
 H        -6.0303841133        4.7227677491        0.9970167866
 H       -10.1796098583        4.6064471468       -1.9098672618
 H       -10.8290384119        6.0444917194       -1.0254384525
 H       -11.9320389278        3.4162272385       -1.6340780617
 H       -12.8553585837        4.8952087985       -1.8299683802
 H       -13.7855456180        3.5575080196        3.6421526134
 H       -12.6070785129        4.7231729398        2.8758497544
 H       -11.8582610420        4.1269081028        5.2468768322
 H       -10.6462245457        3.8223049885        4.0403402996
 H       -14.3792682032       -1.2105204915        4.3282703200
 H       -13.0031540823       -1.4131325447        5.4362767702
 H       -12.7921172985       -0.9930714896        3.8116318279
 H       -11.0767375651       -0.1650903463        5.9507865262
 H       -12.1521701091       -0.1611590344        7.3924285256
 H       -10.9699950221        1.0957939771        7.3602051861
 H       -13.8624491402        3.0514894117        6.4359237335
 H       -12.4781791508        2.8680448051        7.4786122364
 H       -13.8967705635        1.8634744921        7.6265560844
 H       -15.8213567023        3.3801556072        0.4630969691
 H       -15.1156837522        4.3962165074        1.7969076173
 H       -15.3755875849        2.7091158079        2.0522489034
 H       -14.1792380730        1.0403258814        0.4025607940
 H       -12.4718091983        1.5089534137       -0.1179491917
 H       -13.8167546407        2.0620090848       -1.0412592660
 H       -10.1851283801        5.5323490087        2.7074126685
 H       -10.5634772193        6.7167516461        1.4571166749
 H        -9.1776128840        6.8549132931        2.4326680330
 H        -7.3955298211        6.9046154838        0.3670111982
 H        -8.9969904261        7.1386748573       -0.2604486547
 H        -8.1356200395        5.8889670955       -1.0491279791
 H        -5.6036854765       -1.8551176677        0.4293476544
 H        -7.2044545145       -1.3474420379        0.2063194557
 H        -6.4149658331       -1.2680878937        1.7729029648
 H        -4.4042615505        0.3589383765        2.2503197438
 H        -3.7473646342        1.1123504524        0.8311395434
 H        -3.6778582376       -0.6982606597        0.9989749814
 H        -6.3254319497        4.0305797241       -6.1144320926
 H        -6.9398107620        2.5040004811       -5.6660122584
 H        -5.2760785077        2.8397722703       -5.3969273421
 H        -5.8595613772        5.7302719070       -3.1069877340
 H        -4.8147844897        4.9273290304       -4.3206544952
 H        -5.0391805486        4.1943824809       -2.7474417525
 H        -9.6921086590        9.5357792216       -6.2467365253
 H        -8.8188293038       10.6449297472       -5.1102744343
 H       -10.5695263617       10.7139837771       -5.2659026628
 H        -9.8020141456        9.1759471565       -1.8737829146
 H       -10.2864932238       10.7744202829       -2.6277602569
 H        -8.6184959535       10.2741215994       -2.5874375476
 Na       -9.5264584632        2.0124813231        2.5081782159
