117

 C       -12.0552344298        7.9507086248       -2.9048137447
 C       -11.3129707414        8.5010606994       -4.1725321910
 O       -11.9434684439        8.3950248138       -5.2353511404
 C        -9.8640223457        9.0164609773       -4.1074563414
 C        -8.9359936990        7.7554905243       -4.1410621882
 O        -8.3067768607        7.4329232161       -3.1265490117
 C        -9.2178083855        6.7169635801       -5.1984175539
 C        -8.0352100914        5.7216065533       -5.3100077067
 C        -8.1298372250        4.6101850495       -4.2713130838
 O        -9.2019638369        4.1999844759       -3.8526882146
 C        -6.7774027357        3.8065021186       -4.0321927868
 C        -6.9455921653        2.6535723477       -2.9595575771
 O        -7.5244440949        2.9282579705       -1.9093803789
 C        -6.3041436941        1.2784525102       -3.3268682242
 C        -6.3325471912        0.2404972134       -2.1970676484
 C        -5.4957843764        0.7298570449       -0.8954045474
 O        -4.5799898105        1.4335764266       -1.1923111894
 C        -5.6407140547        0.2239339545        0.6062086307
 C        -6.5319059184        1.3219954718        1.3112464810
 O        -7.7367012930        1.0632409522        1.3938877573
 C        -5.9912888919        2.6370427907        1.8298673533
 C        -6.7044560833        3.7789718586        1.0178035174
 C        -7.8743827646        4.4000962620        1.7822786785
 O        -8.2712595340        4.0367081848        2.8741385115
 C        -8.8817479812        5.3213288925        0.8441571596
 C        -9.8996160114        4.3457600321        0.0429596706
 O       -10.0410447310        3.1402511845        0.4047557229
 C       -10.7722427468        4.9363790450       -1.0350313808
 C       -12.1271729261        4.2377257801       -1.1624973668
 C       -12.9566617491        4.3916024142        0.0994704474
 O       -13.1064579368        5.4641777160        0.6697091912
 C       -13.5802078507        3.0604322304        0.7843372869
 C       -12.7012968547        2.8341927649        2.0154391995
 O       -11.8039834630        2.0521380386        1.8794449547
 C       -12.7997913291        3.7344924465        3.3775435911
 C       -11.6954946231        3.5370121837        4.4130164060
 C       -11.5327407058        2.1024619403        4.9605817149
 O       -10.6377336065        1.3990437884        4.4915340622
 C       -12.4911214619        1.4353701947        5.9985898515
 C       -13.6006958804        0.7485302658        5.0139862581
 O       -14.3449541013        1.4770002194        4.3947797544
 C       -13.3973375130       -0.7042937100        4.6520598082
 C       -11.6373132731        0.4953923809        6.9591124418
 C       -13.2006621698        2.4120033121        6.9355558774
 C       -15.0388375347        3.4053031316        1.1603221744
 C       -13.6076289547        1.8279387301       -0.1936683413
 C        -9.7289718109        6.2782387449        1.8470040642
 C        -8.1866750169        6.3124696305       -0.2384112867
 C        -6.4340232101       -1.1306538191        0.6689797985
 C        -4.1972528731        0.1504526095        1.1813822259
 C        -6.2637003418        3.2729386091       -5.4162756635
 C        -5.6531443236        4.8001079548       -3.5165382328
 C        -9.6877352826        9.9636811168       -5.3704386460
 C        -9.6646713371        9.7493026183       -2.8409462572
 H       -12.7404292500        7.1375602126       -3.2134656716
 H       -12.7145379761        8.6845742839       -2.3780060686
 H       -11.3105400325        7.5155577444       -2.1729625568
 H        -9.3162400792        7.2383986050       -6.1613162013
 H       -10.1276512040        6.2313058852       -5.0605428177
 H        -7.1162566476        6.2121250654       -5.4225789977
 H        -8.1769155878        5.2585868068       -6.2293888112
 H        -5.3001017894        1.4705496578       -3.7570361746
 H        -6.8206071693        0.8102632668       -4.2074545247
 H        -5.7679019471       -0.5343621182       -2.5958077189
 H        -7.3635191377       -0.0479517155       -1.9931310612
 H        -4.9242007428        2.5993052660        1.8601025885
 H        -6.3051137741        2.7992945181        2.9358518922
 H        -6.9740712257        3.3575995181        0.0092982249
 H        -6.0164189906        4.6257819300        0.7364117044
 H       -10.2966297655        4.8619427508       -1.9993251909
 H       -11.0885131368        5.9378219019       -0.8008437959
 H       -11.8619173813        3.2120118996       -1.5263895081
 H       -12.7875740114        4.7008358710       -1.9293227653
 H       -13.7708215836        3.3941580067        3.6696326774
 H       -12.8027366898        4.8105297526        3.0599323415
 H       -11.8843011390        4.2266968953        5.2400563487
 H       -10.7186876668        3.8140295286        4.0192698836
 H       -14.2995980745       -1.2123018889        4.4960339082
 H       -12.8365290229       -1.3287907710        5.4052058052
 H       -12.8255987490       -0.8912120099        3.7538008979
 H       -11.0508947083       -0.2312529942        6.3635360266
 H       -12.2111525576       -0.0139025737        7.7756825136
 H       -11.0553153739        1.2319905147        7.5543782735
 H       -13.8362628467        3.0895576702        6.4052566466
 H       -12.5190650664        3.0169752107        7.5002561574
 H       -13.8921458042        1.9626471926        7.6522769465
 H       -15.6801292501        3.3633827024        0.2234607366
 H       -15.0281162794        4.3498209645        1.6598392507
 H       -15.4015432230        2.7023005237        1.9333855762
 H       -14.1451479342        0.9481753903        0.1777082048
 H       -12.6051080050        1.5686728561       -0.4936242788
 H       -14.0915660068        2.1642556916       -1.1015402381
 H       -10.2134495494        5.8610909942        2.7245594502
 H       -10.4350684692        6.8477812958        1.2413128581
 H        -9.0962659645        7.0267301804        2.2518819936
 H        -7.3084709747        6.9081058506        0.1864219195
 H        -8.9512904740        7.0254780841       -0.5373057524
 H        -8.0458785063        5.7726982069       -1.1402816561
 H        -6.0140805050       -2.0518076907        0.4075901604
 H        -7.2788272147       -1.0521930048        0.0427417482
 H        -6.7582572970       -1.1891319144        1.6296385262
 H        -4.3754921894       -0.0132679404        2.2974779264
 H        -3.6221173693        1.0259581976        1.0171474785
 H        -3.6631920539       -0.6977561968        0.7512474329
 H        -6.2463933210        4.1444191939       -6.1051802042
 H        -7.0076188707        2.5674713412       -5.7713422598
 H        -5.3858229711        2.7572470722       -5.3639937125
 H        -6.1363342171        5.7495646063       -3.1539354674
 H        -4.8834456398        5.0969353051       -4.2639275690
 H        -5.1968091759        4.3407033068       -2.6586342073
 H        -9.7502045244        9.3651937039       -6.2836107011
 H        -8.7665086161       10.5644596817       -5.3750734119
 H       -10.5281226681       10.6595060331       -5.3841268273
 H        -9.8366804271        9.0588897987       -1.9683710346
 H       -10.2468281558       10.6287860800       -2.8739019846
 H        -8.6254757487       10.1773230660       -2.7410938745
 Na       -9.5239212179        2.0796528478        2.5884593777
