117

 C       -12.2053208705        8.2436665242       -3.0823344258
 C       -11.5100629719        8.6569068757       -4.3535248101
 O       -12.1291704565        8.7562176421       -5.3733811937
 C        -9.9154890543        8.9552728857       -4.2467091377
 C        -9.1337806096        7.6239083786       -4.0802111889
 O        -8.2778498242        7.4562044942       -3.2220110171
 C        -9.5128416287        6.5119678389       -5.0506114634
 C        -8.3457223310        5.5594294457       -5.4410986235
 C        -8.0904506558        4.5557401474       -4.2572613312
 O        -8.9863609915        4.0898344844       -3.5870467919
 C        -6.5707157905        3.8436644180       -4.0788874851
 C        -6.8589891221        2.7608609300       -2.9389493530
 O        -7.4346057839        3.0520901256       -1.9091321161
 C        -6.4180054019        1.2882755645       -3.2080360806
 C        -6.3651957029        0.3625480357       -2.0512014896
 C        -5.4715872684        0.7080784172       -0.8376271673
 O        -4.6029901929        1.5357237105       -0.9330541589
 C        -5.7630881020        0.0854246505        0.5532558545
 C        -6.5603838374        1.1968113451        1.3474025525
 O        -7.6992128247        1.0168758106        1.7304970724
 C        -5.7931013314        2.4591783633        1.7593158631
 C        -6.3152746452        3.6920335795        0.9162066224
 C        -7.6098163308        4.1861944021        1.4515127446
 O        -7.9870720469        4.0372147087        2.5787151534
 C        -8.6104812301        5.2760714806        0.6123624049
 C        -9.8910893626        4.3883437993        0.1175137482
 O       -10.2077395836        3.3827582423        0.7568124013
 C       -10.5962374785        4.8359102414       -1.0720456546
 C       -11.9660679107        4.0848319648       -1.1856291902
 C       -12.7862476218        4.1970264054        0.0558233883
 O       -12.7769485776        5.2599610310        0.7268479686
 C       -13.6220406592        2.9776199349        0.7153964826
 C       -12.7859317311        2.5564993289        2.0025824930
 O       -12.0356664316        1.6161497612        2.0691602525
 C       -13.0228323266        3.4501064069        3.2226489998
 C       -11.8574408472        3.5745251409        4.1927784952
 C       -11.5718407920        2.2935533630        4.9499997095
 O       -10.5429410465        1.6136411268        4.8316992391
 C       -12.5733189291        1.8433953194        6.0413232941
 C       -13.7372094497        0.9276136861        5.3732067100
 O       -14.8674281467        1.3107321473        5.1091094326
 C       -13.3632665171       -0.4783969337        4.9639477283
 C       -11.7811350237        0.9588996708        7.0215342683
 C       -13.1908667021        2.9843730005        6.8659589092
 C       -15.0119005899        3.6205617956        0.9538723075
 C       -13.7763957604        1.7736116734       -0.2158194149
 C        -9.1824497550        6.3937246625        1.4813380524
 C        -7.8786410339        5.9991584085       -0.6266432444
 C        -6.6195672295       -1.2093841737        0.4670705234
 C        -4.4898617892       -0.1849481850        1.3699319527
 C        -6.1307606837        3.2985998310       -5.4441628478
 C        -5.5065605808        4.8131911559       -3.5595681347
 C        -9.5427941668        9.5737321833       -5.6071209302
 C        -9.6799137662        9.9919046710       -3.1099662684
 H       -13.2322020656        8.4725383130       -3.3013911799
 H       -12.0197560665        8.8534943313       -2.2023863313
 H       -11.9756947895        7.1824099206       -2.8395641623
 H        -9.9026289544        7.0331966920       -5.9448361164
 H       -10.3818310014        5.9711842749       -4.7399907244
 H        -7.5107076324        6.1500709525       -5.7401909157
 H        -8.5727383224        5.0091690541       -6.2938368934
 H        -5.4424744828        1.3545046062       -3.6891736742
 H        -7.1112214077        0.8800780859       -3.9972476883
 H        -5.9287381422       -0.5219686966       -2.4134105698
 H        -7.3686210566        0.1341929734       -1.7099306101
 H        -4.7187977740        2.3772027967        1.7959697309
 H        -6.0702989761        2.7222794761        2.8410564193
 H        -6.1699531284        3.5842581826       -0.1681211133
 H        -5.6747760328        4.5556963222        1.1168086226
 H       -10.1201188980        4.6020177751       -2.0158610784
 H       -10.8905962684        5.8647397695       -1.0033981124
 H       -11.7835017128        3.0123155198       -1.4284661613
 H       -12.5338723933        4.5939751796       -1.9823270915
 H       -13.8358527481        2.9357129297        3.7174540656
 H       -13.4495755253        4.4167475742        2.8617084089
 H       -12.0842346065        4.4044504717        4.8564041845
 H       -10.9357737567        3.8240652551        3.6765221235
 H       -14.1181427758       -0.8753835019        4.3054004416
 H       -13.3253811149       -1.2394865665        5.7310796161
 H       -12.3960673243       -0.6346420840        4.4927212433
 H       -10.9900350188        0.3380468452        6.5510479287
 H       -12.4714129358        0.2763895431        7.5693190943
 H       -11.2493472712        1.6049644172        7.7109301520
 H       -13.9219336761        3.6060053090        6.3187222275
 H       -12.5460977740        3.7637041771        7.2631456922
 H       -13.7270119438        2.4957854382        7.6802480493
 H       -15.5267130157        3.7214449713        0.0042177857
 H       -14.9515511236        4.5869923153        1.4148972505
 H       -15.4776065790        2.9737501014        1.6554957725
 H       -14.6305657712        1.1123029434       -0.0555283482
 H       -12.9195391882        1.0909084686       -0.2342150046
 H       -14.0080984569        2.1773335790       -1.2156176291
 H        -9.5833230917        6.0068487278        2.4074660278
 H        -9.9090644769        7.0680563909        1.0130190437
 H        -8.3515090445        6.9806364242        1.8039451625
 H        -6.8352768196        6.2424357006       -0.3089885202
 H        -8.3701489206        6.9343769458       -0.9075423187
 H        -7.8902227918        5.3417806884       -1.4760407129
 H        -6.3148314223       -1.8058545366       -0.3747456721
 H        -7.6362303993       -0.9607047250        0.1430431722
 H        -6.6835696228       -1.8287002588        1.3268307405
 H        -4.8063508471       -0.5483619426        2.4225310428
 H        -3.8051467766        0.6407944832        1.4721399841
 H        -3.9950109129       -0.9545421819        0.8572830788
 H        -6.2110050626        4.1723791937       -6.0784574554
 H        -6.7514216415        2.5250970831       -5.7901519132
 H        -5.1138169376        3.0177769049       -5.4039189281
 H        -5.5699591239        4.9965122012       -2.4977062466
 H        -5.5571065305        5.7652197819       -4.0637043272
 H        -4.5689625262        4.2910611960       -3.7058158645
 H       -10.2406382930        9.1366546364       -6.3275899522
 H        -8.5284752171        9.3623374299       -5.9393878142
 H        -9.6767306270       10.6680606826       -5.6169016082
 H        -9.7767401161        9.7041775802       -2.0790395477
 H       -10.1049562617       10.8726502486       -3.4475518061
 H        -8.5994107290       10.2274681463       -3.1842436626
 Na       -9.6832863225        2.0984554348        2.6075111430
