117

 C       -12.2782781529        8.4213103231       -3.1214075819
 C       -11.4784847557        8.7364320873       -4.4208877564
 O       -12.1958829054        8.8176930243       -5.4222959534
 C        -9.9312082111        8.9971355483       -4.4776663937
 C        -9.2703200278        7.5829156727       -4.2588948213
 O        -8.5284513870        7.4757691350       -3.3018044315
 C        -9.5452815005        6.3623618946       -5.1860393655
 C        -8.2598153953        5.6269503012       -5.3651624321
 C        -8.0540253249        4.5182879874       -4.2807071965
 O        -8.9977388033        3.9438810945       -3.7543909986
 C        -6.6255878717        3.9239780598       -4.0626310753
 C        -6.7412659835        2.7828950384       -2.9897488861
 O        -7.1548696740        3.0431798283       -1.8728030164
 C        -6.2318264910        1.3558670286       -3.2643216542
 C        -6.4295031688        0.3419673440       -2.0473864128
 C        -5.5879806624        0.7311981954       -0.7477992694
 O        -4.7099299405        1.5432678539       -0.8582986321
 C        -5.8920507153        0.1076168994        0.6625228298
 C        -6.6974220096        1.2041307637        1.4984184989
 O        -7.8140695109        0.8416104826        1.8495464492
 C        -5.8863320533        2.4653181320        1.7814475101
 C        -6.2500285843        3.6366914759        0.9179665880
 C        -7.5909924820        4.2543340030        1.3632763399
 O        -8.0298722488        3.8815201424        2.5111048361
 C        -8.4032092993        5.2321507594        0.5534959045
 C        -9.6782397147        4.4180254866        0.1578583582
 O       -10.1454704083        3.5967577598        0.9404533843
 C       -10.5131012057        4.8024733292       -1.0173285961
 C       -11.8103047209        3.8857100415       -1.1070988388
 C       -12.7331410378        4.1359290759        0.1992375476
 O       -12.6614862157        5.1079249175        0.8329401494
 C       -13.6959557767        2.9447425510        0.6911846370
 C       -12.9619441961        2.6191345228        2.0134122659
 O       -12.2462434822        1.6074582947        2.0895768812
 C       -13.1762571661        3.6102024466        3.1900999624
 C       -11.9498809017        3.6709531534        4.1081643984
 C       -11.6216897954        2.4178910697        4.8624232014
 O       -10.6171519279        1.7631819637        4.6437576408
 C       -12.4993280067        1.9400071792        6.0882874648
 C       -13.7087167677        0.9549490106        5.5348413830
 O       -14.8454158126        1.3380290895        5.6085431081
 C       -13.3555496015       -0.3690257763        5.0663311762
 C       -11.8233822789        1.1551672444        7.2045267815
 C       -13.3238118223        3.1281140318        6.5794705509
 C       -15.1076573945        3.4024729971        1.0206876362
 C       -13.6229133800        1.8178204882       -0.2713476264
 C        -8.8547789185        6.3201610131        1.5344150469
 C        -7.7148568246        5.7791364089       -0.7945684095
 C        -6.8044450209       -1.1383101134        0.5432884169
 C        -4.5392961112       -0.3303999341        1.2196296517
 C        -6.2291915176        3.2580021789       -5.3743415803
 C        -5.5702000073        4.9901473309       -3.6473000890
 C        -9.4899997681        9.5759970028       -5.7598285097
 C        -9.4169402717        9.8662795765       -3.2520595663
 H       -13.3237703350        8.7632168841       -3.2351723054
 H       -11.9327512206        9.0030190250       -2.2374347098
 H       -12.1202641307        7.3692675165       -2.8991599156
 H       -10.1822323066        6.5461694687       -6.0064720016
 H       -10.1404584780        5.6418560508       -4.6056144096
 H        -7.4188572010        6.3237519715       -5.4243367394
 H        -8.2348937817        5.0975722184       -6.3827265249
 H        -5.1319842318        1.4534155362       -3.4654493885
 H        -6.7504722222        1.0758373490       -4.1675982434
 H        -6.0615940425       -0.6920299050       -2.3772914016
 H        -7.4659396789        0.1962107722       -1.7042466725
 H        -4.8096736748        2.2943627288        1.5341150054
 H        -5.8441689404        2.7187707345        2.8021508504
 H        -6.1671739729        3.2385784225       -0.0993226514
 H        -5.3342113559        4.2966831460        0.9239908239
 H       -10.0704843869        4.5513072240       -1.9675170831
 H       -10.8935205774        5.8316295635       -0.9805258973
 H       -11.3975733682        2.8991209675       -1.1911928845
 H       -12.4884311445        4.1463316004       -1.9387998288
 H       -14.1161450441        3.3664319950        3.7876090055
 H       -13.3979255482        4.5318310054        2.6883223791
 H       -12.1237513455        4.4728346557        4.8452063933
 H       -11.0445659942        3.9462321763        3.5115802199
 H       -13.8376772768       -0.6326312373        4.1426704088
 H       -13.7378438412       -1.2018798656        5.7086730789
 H       -12.3201156513       -0.6202629054        4.9639284033
 H       -11.5568361144        0.1485860458        6.8917954993
 H       -12.5406506382        1.0410354320        8.0120223402
 H       -10.8146575669        1.5847373910        7.4882102912
 H       -13.8009502396        3.7017443420        5.8508211575
 H       -12.6990260712        3.8725673768        7.0351044427
 H       -14.0118525515        2.8173733330        7.3552796271
 H       -15.5518128877        3.5780882112        0.0229591396
 H       -15.0846677660        4.4147425197        1.4514525434
 H       -15.6541708420        2.6577997428        1.6581532763
 H       -14.1951738105        0.9925953748        0.1316918058
 H       -12.6627136352        1.3753440576       -0.3163748151
 H       -14.0550319542        1.9613220568       -1.2236512125
 H        -9.2407862222        5.8770686988        2.4476004476
 H        -9.6571969636        6.8841376618        1.1124870658
 H        -8.0506671748        6.9994271678        1.8243751984
 H        -6.8901178771        6.3879961693       -0.4101756818
 H        -8.4259551274        6.4937716318       -1.2064634302
 H        -7.3290808528        5.0463050431       -1.5448485292
 H        -6.2380998163       -2.0011182942        0.2175552814
 H        -7.7651523645       -1.1068592471        0.1248294178
 H        -7.0231031470       -1.3902170245        1.5652003416
 H        -4.4190199882       -0.1311607729        2.2311802088
 H        -3.8013632731        0.2965366490        0.7150751920
 H        -4.3359110673       -1.4352539609        1.0152389918
 H        -6.0451231133        3.9876706127       -6.1638703975
 H        -7.0894845801        2.5937822844       -5.6380622337
 H        -5.2784749693        2.7528541812       -5.2013168810
 H        -5.6806316209        5.4235222635       -2.6314915370
 H        -5.7410049226        5.7907380092       -4.3959711612
 H        -4.5701074619        4.5690134476       -3.7071170858
 H        -9.7609171781        8.9599022719       -6.6345181859
 H        -8.3895745752        9.6733681541       -5.7376876403
 H        -9.9151836085       10.5578455236       -5.8963874417
 H        -9.6520137209        9.2521883739       -2.3541967474
 H        -9.9368216747       10.8813531021       -3.1829763769
 H        -8.3242670860        9.9896936909       -3.1905416073
 Na       -9.6429517725        2.0006190500        2.6426397849
