117

 C       -12.2264481408        8.7234541174       -3.1615215139
 C       -11.4820649963        8.8205407864       -4.5184466553
 O       -12.1143830373        8.8666095803       -5.5763469090
 C        -9.8825159703        8.9274661442       -4.6035928160
 C        -9.2383316779        7.5295168077       -4.2974681698
 O        -8.9110649731        7.2470660837       -3.1651965674
 C        -9.3908116431        6.4391647987       -5.3500943794
 C        -8.2029675584        5.4066861264       -5.5375652035
 C        -8.0720005309        4.3378626074       -4.5155874699
 O        -9.0036790845        3.9003357740       -3.8603596207
 C        -6.6480487040        3.7398201404       -4.2656320076
 C        -6.6833603945        2.6911739295       -3.1624282107
 O        -7.0535477179        3.0649473191       -2.0706257739
 C        -6.0766719622        1.2499048284       -3.3082137396
 C        -6.5090383697        0.3568407347       -2.0966454394
 C        -5.7104368639        0.7847175932       -0.7505168643
 O        -4.7672925909        1.5473708704       -0.7999957526
 C        -5.9645220854       -0.0162527956        0.5583790175
 C        -6.6156662641        1.0935669389        1.5314652794
 O        -7.7736040380        0.9533101203        1.8826825374
 C        -5.8748337017        2.3144682376        1.9390912143
 C        -6.1856410562        3.6647748574        1.1802257387
 C        -7.5540161116        4.1896689362        1.7041957154
 O        -8.0128740166        3.8415964563        2.8171963091
 C        -8.3489871675        5.1585642956        0.6741886668
 C        -9.7357005327        4.4314190320        0.3123616298
 O       -10.2606512330        3.6359758359        1.0942842394
 C       -10.4269399242        4.8195712224       -0.9577810470
 C       -11.7308751049        3.9242977716       -1.1477407535
 C       -12.6636092296        4.0517491446        0.1325301860
 O       -12.8489226104        5.1465770551        0.5836597738
 C       -13.5916791943        2.8568461490        0.6682176220
 C       -12.9608140315        2.5566860905        2.0575833567
 O       -12.1459909928        1.6511205964        2.2349260604
 C       -13.2243938819        3.5445136563        3.2238736502
 C       -11.9970384380        3.7029963212        4.1231101833
 C       -11.7288817112        2.4826705209        4.9981899445
 O       -10.8791855612        1.6445182317        4.6722160670
 C       -12.6479465023        2.2346935923        6.2555537586
 C       -13.6889717598        1.0969098326        5.8420008542
 O       -14.8568737377        1.3294730947        5.9210256329
 C       -13.1307739015       -0.0660294717        5.0967996593
 C       -11.6589818836        1.6031550539        7.3002230050
 C       -13.3844750613        3.4685582920        6.7302778582
 C       -15.0111522269        3.5205194082        0.6364474465
 C       -13.5337379959        1.6134311039       -0.1275614963
 C        -8.7531381698        6.4666564719        1.5965401643
 C        -7.5103193383        5.6028376599       -0.5088067814
 C        -6.9252612400       -1.1532513495        0.3402686777
 C        -4.6728756357       -0.6981465446        1.2132474312
 C        -6.1268190210        3.1222611327       -5.6280063249
 C        -5.7122903774        4.9055540079       -3.7681662984
 C        -9.5305743238        9.4594376400       -6.0234453435
 C        -9.4490680031        9.9802782297       -3.5553535907
 H       -13.2872199519        8.5526552314       -3.4121025387
 H       -12.1774283906        9.7033075511       -2.6893911307
 H       -11.8669361771        8.0056081592       -2.4377330703
 H        -9.6513533137        6.8557071818       -6.3206634097
 H       -10.2981014990        5.8816936769       -5.1019385383
 H        -7.2958386791        5.8778999697       -5.7613568455
 H        -8.4826649589        4.9019947126       -6.4101295928
 H        -5.0263822722        1.5564786347       -3.3157769780
 H        -6.4228682806        0.7921883157       -4.2577647423
 H        -6.3358045268       -0.6925300271       -2.3434558000
 H        -7.5361877798        0.3844128674       -1.9679345182
 H        -4.7858047536        2.0103635060        1.7377324734
 H        -5.9591961703        2.5462650388        3.0021351893
 H        -6.0375748466        3.5850243448        0.0685560219
 H        -5.3603562784        4.3270078060        1.5086020980
 H        -9.7774955747        4.6574952104       -1.8296963485
 H       -10.8333486747        5.8060269383       -0.9164640711
 H       -11.4048599282        2.8879067721       -1.3138080901
 H       -12.4418912014        4.2748230383       -1.9250682501
 H       -14.0892340743        3.1492717714        3.7569489228
 H       -13.6138927465        4.5160562650        2.8985776746
 H       -12.2507684158        4.5687140191        4.7137630141
 H       -11.2312916054        4.0189408168        3.4335311292
 H       -13.4582896470       -0.1466180608        4.0400296432
 H       -13.4088592592       -1.0336845337        5.4311312091
 H       -12.0560128650       -0.0864053792        5.0955241614
 H       -11.0916087760        0.7714553037        6.8880088954
 H       -12.1597933850        1.1710740638        8.1564219878
 H       -10.9153421334        2.3326733071        7.6358793309
 H       -14.1751166549        3.7538081230        5.9909528749
 H       -12.7717594129        4.3812500582        6.9499627683
 H       -13.9053332489        3.2538213001        7.6670481569
 H       -15.3164452500        3.6963365543       -0.3505861033
 H       -14.9872448886        4.4776649401        1.1665361678
 H       -15.6935311386        2.7911768293        1.0164005203
 H       -14.2834323939        0.8540110893        0.1250263770
 H       -12.5197396235        1.1475158247        0.0188326845
 H       -13.5578668177        1.7496851220       -1.2331384886
 H        -9.4078423121        6.1569626240        2.4036046064
 H        -9.2695457870        7.2569348183        1.0664317434
 H        -7.8261653001        6.8974098869        2.0470051316
 H        -6.5303419809        5.8756533485       -0.2758860943
 H        -8.0313520502        6.4532013266       -0.9624738289
 H        -7.4772340729        4.7176095702       -1.1824103924
 H        -6.5472819023       -1.8494250936       -0.4007294627
 H        -7.9073345305       -0.7781600446        0.1518949714
 H        -7.0823184410       -1.7794040190        1.2479908559
 H        -4.8798862919       -1.1790504299        2.1059961522
 H        -3.9084907617        0.0913757613        1.4405252947
 H        -4.2840604210       -1.5196421050        0.5570417421
 H        -6.1729489088        3.8394426582       -6.3699191790
 H        -6.7888114651        2.3394814784       -5.9008246119
 H        -5.0622760793        2.8266798899       -5.5614699531
 H        -6.3276527832        5.6003821904       -3.2554015250
 H        -5.1049659123        5.3354212074       -4.5397620955
 H        -5.0213055806        4.5127453488       -2.9948996143
 H        -9.6212881430        8.7537273111       -6.8406833108
 H        -8.5534537453        9.9108263850       -6.0703460565
 H       -10.2699180164       10.2300368406       -6.2320236797
 H        -9.7476937914        9.4745474731       -2.6579065877
 H       -10.0995019239       10.8805989834       -3.4775417283
 H        -8.4124230634       10.1501160206       -3.5851044799
 Na       -9.7106099982        2.0917345484        2.7400131940
