117

 C       -12.0758201759        8.7962293410       -3.3082029330
 C       -11.4875689852        8.8333100537       -4.6639533714
 O       -12.0975939108        8.7151098579       -5.6772540022
 C        -9.8846738333        8.9171300828       -4.6235163193
 C        -9.4458667877        7.4683052159       -4.3475619653
 O        -9.0776895357        7.1956943648       -3.2138628497
 C        -9.5243612422        6.3049267307       -5.4136493960
 C        -8.2485575046        5.4516453341       -5.6716362178
 C        -8.0342909303        4.3550679121       -4.5761008450
 O        -9.0276559138        3.9711949633       -4.0154415247
 C        -6.6044438075        3.6980253698       -4.3083752912
 C        -6.7535164140        2.6555818944       -3.1260642922
 O        -7.2800512585        2.9820605708       -2.0907726982
 C        -6.2367787297        1.1357563204       -3.3891557049
 C        -6.2382925272        0.2519752465       -2.1691591108
 C        -5.5865803204        0.7095682389       -0.8802947074
 O        -4.6842860564        1.5344430904       -0.6974778422
 C        -6.0782254106        0.0402179124        0.4590711537
 C        -6.7390263867        0.9875076108        1.5089947486
 O        -7.9230672764        0.9246679118        1.7976271609
 C        -5.8628690171        2.1589263090        1.9888822042
 C        -6.2676462617        3.4343106264        1.3339391148
 C        -7.5517196204        4.1667276524        1.8671942798
 O        -8.0180942605        3.9508054088        2.9412240680
 C        -8.4071760444        5.1642601984        0.9201505365
 C        -9.7175575681        4.3563927590        0.4547324121
 O       -10.3285855338        3.6030774403        1.1613542851
 C       -10.3255843891        4.7899605154       -0.8660336805
 C       -11.5811727390        3.9198203946       -1.1572527479
 C       -12.6085682703        4.1378053599       -0.0272862238
 O       -12.8332162697        5.2877420816        0.4211506624
 C       -13.4230049833        2.9682109349        0.5598907956
 C       -12.8376734161        2.6704547026        1.9616826162
 O       -12.1259770816        1.6931582134        2.1030045685
 C       -13.2081633504        3.6095833650        3.0318782814
 C       -12.0831344416        3.9007626602        4.1622717331
 C       -11.7218599056        2.6983381948        5.1024794015
 O       -10.7892530358        1.9616453625        4.8272576109
 C       -12.5749749097        2.3637746387        6.3255424173
 C       -13.6288878161        1.1478119543        5.8986324750
 O       -14.7989146969        1.3557726217        6.1171016586
 C       -13.1378803067       -0.1238668664        5.2866467733
 C       -11.7540065333        1.7443792827        7.5275789754
 C       -13.3430033104        3.5159448489        6.9184895187
 C       -14.9869080059        3.2091866037        0.7190330447
 C       -13.3644450900        1.6948718893       -0.3433100992
 C        -8.8888889333        6.3050300960        1.8357722283
 C        -7.5609099840        5.7086329841       -0.3952365085
 C        -7.1555454462       -1.0888345536        0.2804833614
 C        -4.7656124339       -0.5689785653        1.1099431886
 C        -6.0744508427        3.0717307446       -5.5986711550
 C        -5.5471758325        4.8245544037       -4.0035317739
 C        -9.4566878457        9.3614957460       -6.0569296529
 C        -9.2781621546        9.9076601236       -3.6190965360
 H       -12.7370549060        7.9132178206       -3.1921270677
 H       -12.5958956270        9.7366451587       -3.0244409543
 H       -11.2285628553        8.6758893985       -2.5771497574
 H        -9.9169783084        6.6915718618       -6.3503508812
 H       -10.2866105430        5.6755969400       -4.9890147793
 H        -7.4100972868        6.2130424643       -5.6870378393
 H        -8.3460845406        5.0016077901       -6.6993392440
 H        -5.2418813045        1.2809482870       -3.7835069999
 H        -6.9717073530        0.7445579196       -4.0799413717
 H        -5.7859663595       -0.7074231517       -2.4696191109
 H        -7.2640524782       -0.1796219353       -1.8576932722
 H        -4.8651279440        1.8853868843        1.8985044532
 H        -6.1484619217        2.2719886744        3.0645016931
 H        -6.4381806827        3.1859949005        0.2781314220
 H        -5.4475545874        4.1921697502        1.2712857873
 H        -9.7474577113        4.6766380192       -1.7798293421
 H       -10.6726051216        5.8544653210       -0.7141208268
 H       -11.2594130121        2.8691346969       -1.1975082725
 H       -12.0534243462        4.1994779806       -2.0983405344
 H       -14.1421250323        3.2389622816        3.5076327294
 H       -13.6155650860        4.5300617556        2.5946555351
 H       -12.4997421871        4.7941470967        4.6554402409
 H       -11.2158486529        4.2248658816        3.5564097176
 H       -13.0494475228        0.0107417395        4.2170124850
 H       -13.9112322135       -0.8931948616        5.3047210849
 H       -12.1882482931       -0.5999789054        5.5737369191
 H       -10.9048492364        1.0676715922        7.2419274088
 H       -12.4172649123        1.0776085608        8.1558976585
 H       -11.3609983175        2.5184762255        8.2135420071
 H       -14.0034405098        3.9039180761        6.1557191459
 H       -12.6907085911        4.2779349073        7.2715182297
 H       -13.9862389537        3.2660319104        7.7446221053
 H       -15.4664496297        3.1621277594       -0.2971025956
 H       -15.1221791943        4.1849435714        1.1772441174
 H       -15.4820934816        2.3981797386        1.2604323457
 H       -14.0643222216        0.9955299855        0.0812641217
 H       -12.4111857712        1.2311791040       -0.4237031677
 H       -13.5719103697        1.8191340936       -1.3852774918
 H        -9.4470574596        5.9386384960        2.6834958426
 H        -9.5885137710        6.9415928201        1.2925250975
 H        -8.0712206283        6.8964613056        2.1398558444
 H        -6.6553483444        6.1448515491        0.1244731275
 H        -8.0365177428        6.5629176540       -0.8728298631
 H        -7.1956356100        4.9420191396       -1.0521056539
 H        -6.8201655627       -1.8830943983       -0.3044745494
 H        -8.0509645486       -0.6347872178       -0.1024325593
 H        -7.3791318751       -1.5250250716        1.2063903201
 H        -5.1230212647       -1.4833513750        1.7161793458
 H        -4.1268237506        0.0658655531        1.6909389268
 H        -4.2027157257       -1.0799150573        0.3899925797
 H        -6.1248333751        3.7389866411       -6.4894587931
 H        -6.6199163450        2.1624111290       -5.8256538040
 H        -5.0643972450        2.7614985918       -5.3696359875
 H        -5.9170930608        5.4575810056       -3.1814395153
 H        -5.2876297299        5.3589612951       -4.9321109858
 H        -4.5956469036        4.4015837584       -3.7213450728
 H       -10.1352063576        8.8699954180       -6.7619299607
 H        -8.4611454289        8.9334854606       -6.2629332554
 H        -9.4298270593       10.4405917716       -6.2705487104
 H        -9.3841568000        9.7534166245       -2.5359935520
 H        -9.7947937243       10.8180188906       -3.7156472224
 H        -8.2581420760        9.9324247675       -4.0539814363
 Na       -9.6995521248        2.1123762388        2.8459822645
