117

 C       -12.0636978614        8.9762829465       -3.4215015714
 C       -11.4809733249        8.7539948431       -4.7693423460
 O       -11.9437116648        8.5005853654       -5.8393040245
 C        -9.8111316631        8.7438480950       -4.8128372285
 C        -9.5007563152        7.2432788147       -4.3956686523
 O        -9.2969979956        6.9392192403       -3.2239378600
 C        -9.4212356213        6.1679236675       -5.4812719364
 C        -8.0260189368        5.4776061534       -5.5192978925
 C        -8.0673611703        4.3448447932       -4.4675570264
 O        -9.1089354892        3.9061570295       -4.0626506898
 C        -6.6826071881        3.6442197934       -4.3706099517
 C        -6.7784595524        2.5620884176       -3.2508350595
 O        -7.3087365065        2.8836677795       -2.1927078927
 C        -5.8811617166        1.3111140586       -3.2494886874
 C        -6.4165745889        0.4069644703       -2.2225204384
 C        -5.7940849346        0.6885041766       -0.9156384088
 O        -4.9642333838        1.5939976399       -0.7969645725
 C        -6.2656711652       -0.0523915199        0.3444199830
 C        -7.0090270649        0.8941432428        1.2637282072
 O        -8.1615875888        0.8150776348        1.5862359178
 C        -6.1085927361        2.0183183920        1.8982887057
 C        -6.4537552063        3.4437224164        1.3146016885
 C        -7.5893778079        4.1870923393        1.9575803305
 O        -8.0667917329        3.9170412394        3.0719089793
 C        -8.3951307766        5.2205020898        1.1727088498
 C        -9.6480312981        4.4321751536        0.4707149620
 O       -10.2322424816        3.6074833920        1.0783130493
 C       -10.1621720929        4.8509723215       -0.9090443290
 C       -11.4962966231        4.0648473890       -1.2077570366
 C       -12.5719421244        4.1207878313       -0.1336916594
 O       -12.9900677823        5.1888640534        0.2803677912
 C       -13.2112949553        2.8784114357        0.4974836352
 C       -12.5527424016        2.7065844714        1.8934072819
 O       -11.7783908010        1.7732217965        2.1052926242
 C       -13.0903079962        3.6159681481        2.9860732761
 C       -12.1077793611        3.9709474159        4.1643069354
 C       -11.7133706372        2.8489460729        5.1425212939
 O       -10.6208201630        2.3579437010        5.0566819168
 C       -12.5883484920        2.4958251285        6.4260317099
 C       -13.5931402818        1.3364165255        6.0627757009
 O       -14.7846225743        1.5233677771        6.2242073827
 C       -13.0115709321       -0.0177976010        5.6072766750
 C       -11.7532442465        1.9348666266        7.5394196335
 C       -13.5137704605        3.7221079332        6.9525802399
 C       -14.7170199221        3.2897820186        0.6219083031
 C       -13.0860233368        1.5717285972       -0.2987149147
 C        -9.0802782960        6.2440650386        2.1976503393
 C        -7.5864820675        6.0336266584        0.1064989326
 C        -7.2663936434       -1.1993946900        0.0941589336
 C        -5.0492186189       -0.6653370210        1.1578829648
 C        -6.5070465853        3.0943887189       -5.8093970658
 C        -5.6020218682        4.6010123468       -3.8816938110
 C        -9.3029059597        9.0163387343       -6.2654702815
 C        -9.0485459834        9.6783956281       -3.8306809406
 H       -12.0487738675        8.0290407911       -2.9397784073
 H       -12.9821978389        9.5407894716       -3.4203834199
 H       -11.3768131170        9.5311460520       -2.8097734477
 H        -9.7184917269        6.5545271662       -6.4360890703
 H       -10.1043515590        5.3750158148       -5.1440915866
 H        -7.2564254421        6.1459337938       -5.3829925119
 H        -7.9596064636        5.0290010818       -6.4650765683
 H        -4.9291529493        1.7399181624       -2.8677449618
 H        -5.9265855396        0.8908680498       -4.2358483348
 H        -6.1929711752       -0.5814767995       -2.4928493746
 H        -7.4814064920        0.3798356313       -2.0300285540
 H        -5.0905065973        1.8818191838        1.5481716679
 H        -6.2152276946        1.9374217056        3.0188643247
 H        -6.5634964304        3.4254268805        0.2273632948
 H        -5.4742986387        3.9886850930        1.5156882609
 H        -9.4538571060        4.5390466684       -1.6530927137
 H       -10.3941928339        5.9247303752       -1.0459970660
 H       -11.3209950283        3.0098566149       -1.5123248756
 H       -11.8977909238        4.5364947748       -2.1455630953
 H       -13.9994358865        3.1702801042        3.4706333273
 H       -13.5069685643        4.4789284404        2.5290319780
 H       -12.5277263900        4.8211749888        4.6479129932
 H       -11.2083472128        4.2423679379        3.6367852395
 H       -12.0225391827       -0.0313657778        5.2565189691
 H       -13.6021040864       -0.4941425285        4.7778673721
 H       -12.9931197722       -0.7472715411        6.4192664516
 H       -11.3697979011        0.9954411027        7.2623610155
 H       -12.2062226525        1.8623695569        8.4936031289
 H       -10.9270668203        2.5927322602        7.7800650916
 H       -14.3174870091        4.0128227296        6.2805951240
 H       -12.8593713982        4.5523389456        7.2830628157
 H       -14.0487386466        3.3932781953        7.9036318241
 H       -15.1152597423        3.3419026846       -0.4098559021
 H       -14.8044334187        4.2153110970        1.0740231436
 H       -15.3074780259        2.5631825847        1.1581491592
 H       -13.9441389542        0.8962091800       -0.0221410643
 H       -12.1740876894        0.9864941088       -0.2436228920
 H       -13.1073715300        1.7318337220       -1.3797345498
 H        -9.5874192730        5.7562993072        3.0685176957
 H        -9.8369475026        6.8429918833        1.6494082402
 H        -8.3454559975        6.9721817463        2.5371310194
 H        -6.5615659037        6.3032650117        0.5049092601
 H        -8.0814500275        6.9029359508       -0.2621486413
 H        -7.4499222593        5.3789129128       -0.7169960670
 H        -6.9059426233       -1.9283841029       -0.6701342917
 H        -8.3038838409       -0.8654520082       -0.2146760675
 H        -7.2998430282       -1.7572812098        1.0194852628
 H        -5.1742395415       -0.7403905441        2.2901549306
 H        -4.1670960176       -0.1484083866        0.9271006870
 H        -4.8460938097       -1.6901105411        0.7769923547
 H        -6.3805537628        3.9555907252       -6.4876376096
 H        -7.3103642727        2.4556009955       -6.1664218403
 H        -5.6531082865        2.5259032279       -5.8302113274
 H        -5.7818928442        4.9053801215       -2.8263613798
 H        -5.5330498011        5.4838388212       -4.5271486626
 H        -4.6587687558        4.1596239816       -3.9702364008
 H       -10.1331969692        8.8404589135       -6.9545830308
 H        -8.4610522892        8.4062999700       -6.6252802704
 H        -9.0064174900       10.0304013739       -6.3704807922
 H        -9.1382026660        9.4347978135       -2.7647431860
 H        -9.4497620484       10.6578412744       -3.9031533407
 H        -8.0141892312        9.6424022185       -4.1656703887
 Na       -9.6118109478        2.1806092673        3.0726752861
