117

 C       -12.0759273898        9.1879652892       -3.5004712062
 C       -11.3368836273        8.7691144087       -4.8425493456
 O       -11.9217804536        8.4621866226       -5.8812912934
 C        -9.7441151052        8.7111599000       -4.8768680785
 C        -9.5849752558        7.2235960940       -4.4573359241
 O        -9.4937756588        6.9718977080       -3.2747370791
 C        -9.6735298974        6.0680415304       -5.5450760187
 C        -8.2991673174        5.3564259642       -5.6731415185
 C        -8.0759916141        4.2495862968       -4.6183479831
 O        -8.9957312605        3.8909729354       -3.9023595615
 C        -6.6049666293        3.6269696854       -4.3956562857
 C        -6.7483092869        2.5699522167       -3.1884423552
 O        -7.4155002871        2.7941962645       -2.2205711743
 C        -5.9976986058        1.2053456658       -3.3320030351
 C        -6.3435514887        0.1538710423       -2.2407776296
 C        -5.8870560027        0.5597614931       -0.8085566151
 O        -5.1464999376        1.4754536931       -0.6330159100
 C        -6.4187453257       -0.1820524303        0.3781034858
 C        -7.1512438654        0.9723909403        1.3230983659
 O        -8.3525275238        0.9164741412        1.6162355755
 C        -6.2636339646        2.0430372978        1.9070773248
 C        -6.4949874305        3.4391417815        1.2300878806
 C        -7.6834855404        4.2779051805        1.9642908046
 O        -7.9253346400        3.8864182948        3.0843139914
 C        -8.4118423693        5.3823439444        1.2139006748
 C        -9.5748545251        4.5578636254        0.4822559294
 O       -10.1362780093        3.5749633022        1.0480625911
 C       -10.2051844511        4.9679430563       -0.8687890268
 C       -11.3687927833        4.0529054362       -1.2233070918
 C       -12.4314491198        4.1201393790       -0.1350308375
 O       -12.7220897316        5.2134188070        0.2413903217
 C       -13.1247147692        2.8252732031        0.5157033972
 C       -12.5798577090        2.7088554287        2.0290526298
 O       -11.8117309323        1.8011755547        2.2101622053
 C       -13.1557174899        3.5808701500        3.1748360044
 C       -12.0609728158        3.9926933121        4.2188356536
 C       -11.6735060720        2.8839630793        5.2189350483
 O       -10.6382722138        2.1878278999        5.1085724285
 C       -12.6060313593        2.6208574071        6.4832885742
 C       -13.5880872198        1.4055027638        6.0535851909
 O       -14.7768991172        1.6320541866        6.0384922132
 C       -12.9685524748        0.0714549285        5.6958590397
 C       -11.6485281754        2.2870912817        7.6365971602
 C       -13.4470559732        3.9258875665        6.8154045026
 C       -14.6626400784        3.0506459167        0.5069398188
 C       -12.8753962050        1.5243268188       -0.2198405501
 C        -9.1767958109        6.3049521164        2.2779013107
 C        -7.5507093035        6.1917507152        0.2915062023
 C        -7.3303505138       -1.3564843963        0.0711658592
 C        -5.1998616679       -0.7620533849        1.0867441279
 C        -6.2207396772        2.8782786616       -5.6998398789
 C        -5.4460891454        4.6327811052       -4.1070582695
 C        -9.2349203964        9.0477227806       -6.3251216020
 C        -9.0719983243        9.7027501950       -3.8163775889
 H       -11.6274451016        8.7244954051       -2.5857053845
 H       -13.1666609573        9.1866549657       -3.6463822106
 H       -11.9508639992       10.2732016319       -3.2940796863
 H        -9.9692117597        6.4974705954       -6.4939977478
 H       -10.3395964727        5.3072611307       -5.1822457510
 H        -7.4535510354        6.1215660892       -5.5790591650
 H        -8.3066132259        4.9819666389       -6.7329602433
 H        -4.9718534128        1.5157798852       -3.3276095324
 H        -6.4130370575        0.8717006532       -4.2890824773
 H        -5.8843904256       -0.8741426727       -2.5330655121
 H        -7.4337453859       -0.0375184651       -2.1639224615
 H        -5.1876991010        1.7704012866        1.8829862090
 H        -6.6483434171        2.0810303548        2.8976847611
 H        -6.7722577391        3.4038575967        0.1295841317
 H        -5.5003642613        3.8790696616        1.3028659270
 H        -9.4209026853        4.8691505434       -1.6864469471
 H       -10.5872266598        6.0038269734       -0.8046078081
 H       -11.0201290733        3.0301690884       -1.3402888902
 H       -11.7718119261        4.2489610391       -2.1981965600
 H       -13.9578907242        3.0640273844        3.6880647183
 H       -13.6402010729        4.4943328213        2.7098161314
 H       -12.5181900754        4.7930341355        4.8475993112
 H       -11.2811030174        4.3941579074        3.5533090392
 H       -11.8754198947       -0.0138586838        5.9086695184
 H       -13.0859498548       -0.1521660476        4.6494929797
 H       -13.4140627552       -0.7772830842        6.2047430786
 H       -11.1219203324        1.3094789006        7.4651973412
 H       -12.0987422341        2.2563869478        8.6523395747
 H       -10.8757765931        3.0565785081        7.8352182288
 H       -14.1602853424        4.1306433910        6.0038142132
 H       -12.7388135617        4.7427640806        6.9589880137
 H       -14.0267467073        3.8066080793        7.6985239712
 H       -14.9447057826        3.0708571807       -0.5212953355
 H       -15.0561580907        3.9858846379        1.0030952053
 H       -15.1548030092        2.2062775440        1.0210187827
 H       -13.4170466912        0.7221834554        0.2334159848
 H       -11.8306512513        1.1789894874       -0.2756956918
 H       -13.1615719074        1.5457729396       -1.2824196410
 H        -9.9272945289        5.6700860318        2.6781295121
 H        -9.6946580804        7.0823266898        1.7586628561
 H        -8.6041314898        6.7609918053        3.0920628468
 H        -6.6695638705        6.5163533007        0.7571937298
 H        -8.1533117783        7.0046464868       -0.1741484648
 H        -7.3056848259        5.5200019463       -0.5875962807
 H        -6.8350693575       -2.0084807146       -0.5862597627
 H        -8.1480213212       -1.0148745608       -0.4427087054
 H        -7.6998701809       -1.8059669573        0.9617181060
 H        -5.4908644110       -0.8730237051        2.0738369030
 H        -4.3121472069       -0.0494366986        1.0560692427
 H        -4.7667852496       -1.6905202025        0.6785787714
 H        -6.0206028126        3.6018512034       -6.4441173779
 H        -6.9880728339        2.1822931689       -6.0562748405
 H        -5.2782042857        2.2703101151       -5.6846795005
 H        -5.7448235704        5.4178561822       -3.4464909025
 H        -5.1971531054        5.1406411498       -5.0290083327
 H        -4.5191281676        4.1255841719       -3.6873589060
 H        -9.5347058092        8.3608272716       -7.1177305347
 H        -8.1510155392        9.0813794947       -6.3351688551
 H        -9.5534602228       10.0725604225       -6.6208376172
 H        -9.4427810525        9.3938713828       -2.8267302975
 H        -9.4157676235       10.7917549741       -4.0283514966
 H        -7.9770681768        9.6585451020       -3.7685687740
 Na       -9.5729344608        2.1901950437        2.9933924553
