117

 C       -12.0029490479        9.2935510043       -3.6607181361
 C       -11.3390783054        8.9263165335       -4.9304519087
 O       -11.9500382934        8.4551254008       -5.8574762407
 C        -9.8317194631        8.7438077506       -4.8870836234
 C        -9.6099431791        7.2472011980       -4.5336406831
 O        -9.5293814763        6.9355173574       -3.3627723404
 C        -9.7004267447        5.9504525114       -5.4657656206
 C        -8.2999803646        5.2511857813       -5.6794139558
 C        -8.0153821331        4.2557740131       -4.5702326233
 O        -8.8858903810        3.8914280698       -3.8419796592
 C        -6.6321426212        3.4920190215       -4.4578513064
 C        -6.7932120366        2.4874527911       -3.1904788584
 O        -7.3981288151        2.8845897864       -2.2070557879
 C        -6.1113363588        1.0868523491       -3.3386989172
 C        -6.3026413295        0.0935113559       -2.2551456410
 C        -5.9221909406        0.6682980453       -0.8732327657
 O        -5.0789679324        1.5404380697       -0.7684726179
 C        -6.5840808936       -0.1604732537        0.4795127461
 C        -7.1988860207        0.9271790647        1.3809184054
 O        -8.3785530605        0.8057959379        1.5395427382
 C        -6.2900291760        2.0498161469        1.9268617242
 C        -6.6015843777        3.3706048670        1.1526614169
 C        -7.6202875982        4.2534007210        1.9740592053
 O        -7.9173499286        3.9481873993        3.1053401674
 C        -8.4571102740        5.3446290087        1.2201516861
 C        -9.5993478077        4.6022095135        0.5374604742
 O       -10.0403903524        3.5912962286        1.0301381725
 C       -10.2044367211        4.9702140237       -0.8754743935
 C       -11.2310556028        3.9206016838       -1.1630334536
 C       -12.3955820750        4.1331357515       -0.0973367987
 O       -12.6537240189        5.1902139380        0.3992510913
 C       -13.0793283519        2.8103387576        0.5074258799
 C       -12.6444685292        2.7175081296        1.9781852745
 O       -11.9117298654        1.8136265816        2.3790492734
 C       -13.1277360092        3.5877797025        3.1662818903
 C       -11.9966459334        3.8602413616        4.1951899644
 C       -11.7219737945        2.7883591562        5.2049664860
 O       -10.6820609725        2.1394376651        5.0694695313
 C       -12.5959947125        2.7462024524        6.4582820238
 C       -13.5691496729        1.5183329764        6.1554451102
 O       -14.7437318860        1.7194385575        5.9001185774
 C       -12.8764746354        0.2478896582        5.7807012246
 C       -11.6800396682        2.4451403365        7.6253715295
 C       -13.4316123686        3.9509041277        6.7756078366
 C       -14.6535981030        2.9583634618        0.5183053758
 C       -12.6534998614        1.5982446405       -0.2475709445
 C        -9.1789706216        6.3156125234        2.2782800663
 C        -7.5416385626        6.1948028088        0.3494077889
 C        -7.5341746756       -1.3357607423        0.2032216571
 C        -5.3042753186       -0.8566893293        1.2078925024
 C        -6.0572813220        2.7433074390       -5.7043208070
 C        -5.6124303165        4.6531737283       -4.1779504465
 C        -9.1755954269        9.1137321896       -6.2361764048
 C        -9.1558338713        9.6754320789       -3.8502381601
 H       -11.3079526419        9.1698462175       -2.8354912148
 H       -13.0406480420        8.9462512459       -3.5509292994
 H       -12.2115462633       10.3588322726       -3.6334079626
 H       -10.1851314958        6.1739343264       -6.4333780418
 H       -10.2729049928        5.1831654403       -4.8067593118
 H        -7.4837380006        6.0065689726       -5.8684517830
 H        -8.4348207576        4.6464232741       -6.6704677538
 H        -5.0685085092        1.4308645677       -3.4027277272
 H        -6.5494187834        0.7299532168       -4.2652265898
 H        -5.5392415041       -0.7482722222       -2.4664254390
 H        -7.2666278250       -0.3765730210       -2.2126958593
 H        -5.2211930768        1.7904211822        1.8185143020
 H        -6.5961206649        2.1347401518        2.9411324915
 H        -7.0968481345        3.2862341835        0.2043841190
 H        -5.6551995172        3.8920491319        1.0087885724
 H        -9.3920935645        4.9984075273       -1.6493514872
 H       -10.7135780791        5.9671162136       -0.7611917036
 H       -10.7972402852        2.9534045335       -1.2583056048
 H       -11.6791693485        4.0253794839       -2.1445628609
 H       -13.9608918956        3.0427711866        3.6656446753
 H       -13.5300365534        4.5489514069        2.8359954134
 H       -12.2364512689        4.8011329807        4.7350394347
 H       -11.1699130239        3.9951454230        3.4852819041
 H       -11.9657579669        0.0778725813        6.2664260616
 H       -12.7259354144        0.0747734324        4.6566658235
 H       -13.5032677322       -0.5935082895        6.0791911946
 H       -10.9694981191        1.6583073933        7.4402578610
 H       -12.2509161452        2.1667675209        8.5067832089
 H       -11.1002252225        3.3226678057        8.0654282488
 H       -14.0907355042        4.1210062618        5.9819445183
 H       -12.8657323168        4.8296604816        7.0212243497
 H       -14.0543612683        3.6232073915        7.6291712763
 H       -15.0628326518        2.8744223873       -0.5202419597
 H       -15.0756847637        3.8338351989        0.9939225145
 H       -14.9983503236        2.1024903244        1.1702729921
 H       -12.9537614892        0.6461393833        0.1695282429
 H       -11.6123642514        1.4673975968       -0.4185073936
 H       -13.0933085458        1.6351015295       -1.2160179100
 H        -9.9886048738        5.8554176757        2.8317260149
 H        -9.5468175955        7.1688921172        1.7654416177
 H        -8.4252779781        6.6458090866        2.9775838212
 H        -6.8605921443        6.8610212784        0.9099890863
 H        -8.2202378790        6.7267135542       -0.2906272594
 H        -6.9748048473        5.5727917387       -0.3414752296
 H        -6.9236462845       -2.0485273234       -0.3753678119
 H        -8.4668045716       -1.1502682021       -0.3641187250
 H        -7.8640485414       -1.6544527029        1.1561009039
 H        -5.5589520923       -1.3536442514        2.1233038988
 H        -4.6436572182       -0.0764453231        1.4788019804
 H        -4.6269724442       -1.4542339861        0.5503609782
 H        -6.0977332351        3.3817432647       -6.6513200657
 H        -6.6891285533        1.7876237525       -5.8702219163
 H        -5.0223197598        2.4265083911       -5.6952410654
 H        -6.0635178834        5.4465062676       -3.5281155463
 H        -5.4562680715        5.2120215211       -5.1114250062
 H        -4.6829089952        4.3285342459       -3.7346894363
 H        -9.2744548431        8.4289795776       -7.1028311542
 H        -8.0911120691        9.2285117291       -6.0427497881
 H        -9.4779645397       10.0928277340       -6.5630496455
 H        -9.5258150846        9.3521124996       -2.8491467390
 H        -9.3484676802       10.7568740889       -4.0801677042
 H        -8.0713888329        9.5216583332       -3.7429092775
 Na       -9.5392879240        2.2590894636        2.8864059301
