117

 C       -12.1332439127        9.7146338724       -4.1601745498
 C       -11.3564629656        8.8360553868       -5.1027164338
 O       -11.8625912004        8.3591375157       -6.0593525963
 C        -9.6996420284        8.5454120156       -4.9702452631
 C        -9.5173344121        7.0328820265       -4.5388021816
 O        -9.1750129624        6.6990660952       -3.4149566430
 C        -9.7586773255        5.9396429773       -5.5610395757
 C        -8.4707030458        5.1300095177       -5.6021620902
 C        -8.3383550799        4.0439929050       -4.4450574593
 O        -9.2114991662        3.6781278874       -3.7099099895
 C        -6.7533481123        3.4911502118       -4.2902928735
 C        -6.6940010360        2.4388881355       -3.1190710154
 O        -6.9769827258        2.8294928751       -1.9830848883
 C        -6.1641178960        0.9678026527       -3.3823013145
 C        -6.7165173521        0.1528344413       -2.2124203764
 C        -6.0819854195        0.4377899766       -0.8321330624
 O        -5.0836355538        1.1669631436       -0.7120530763
 C        -6.6827566417       -0.2270650079        0.4690323296
 C        -7.3336386578        0.8861370862        1.4385721999
 O        -8.4438495559        0.7293039567        1.8753270249
 C        -6.4246626588        1.9993198006        1.8153216642
 C        -6.6273912166        3.3488458605        1.2059949479
 C        -7.6216839812        4.2719119682        1.9629913554
 O        -7.7925224297        4.1482261055        3.1621468780
 C        -8.4046234179        5.3727596023        1.2261937097
 C        -9.5742529626        4.6316725384        0.5536514538
 O       -10.0582275636        3.6908822424        1.1270725779
 C       -10.1571715842        5.1311850470       -0.8634395557
 C       -11.3766593399        4.2083536424       -1.1859704553
 C       -12.2143742132        4.0289712593        0.1331440892
 O       -12.5247555236        5.0815869833        0.6728708950
 C       -12.8814905154        2.6797488580        0.5909705211
 C       -12.5789079931        2.5163920886        2.0833163638
 O       -11.9097793429        1.5740750789        2.5193588457
 C       -13.0552373904        3.5657193546        3.1001590891
 C       -11.8935355257        4.0568430234        3.9979056219
 C       -11.5807097676        3.1535164116        5.1174489657
 O       -10.5679440741        2.4587845209        5.1129928299
 C       -12.5165246467        3.0074410120        6.2920746191
 C       -13.5420372415        1.7380157464        5.9520312645
 O       -14.6307229230        1.8852727419        5.4834770602
 C       -12.9105091753        0.4170649083        6.2845868363
 C       -11.6354189785        2.7394413624        7.5283574850
 C       -13.5034395564        4.2177462076        6.5747147650
 C       -14.4272794120        2.8125620275        0.3918590531
 C       -12.3381615028        1.4644475381       -0.2218513674
 C        -9.0554827906        6.4827089021        2.1159268160
 C        -7.5572451236        6.2051667281        0.1513955390
 C        -7.7778537308       -1.2609337651        0.2062045519
 C        -5.5200475431       -1.0362936592        1.0982284580
 C        -6.4980791167        2.9290437347       -5.7503215768
 C        -5.7051063404        4.5862721836       -3.8661193782
 C        -9.0072079151        8.8541785783       -6.3129732546
 C        -9.2072199010        9.5073850669       -3.8544728835
 H       -11.9703193270        9.6917830021       -3.0623952722
 H       -13.2430594566        9.5928711782       -4.3092807225
 H       -11.9233160735       10.7662950073       -4.4748272332
 H       -10.0637598974        6.3594119746       -6.5053808374
 H       -10.5847735348        5.2733873653       -5.2291340462
 H        -7.6255451514        5.8436043916       -5.6462607116
 H        -8.3703982215        4.5873355357       -6.6174269148
 H        -5.0505327526        1.0734828546       -3.3936172884
 H        -6.5384423372        0.6217311337       -4.3457048038
 H        -6.4368759166       -0.9355965310       -2.4679404907
 H        -7.8003636344        0.3031668517       -2.0838344362
 H        -5.3795833721        1.7086769518        1.6145086234
 H        -6.5324040833        2.0892458447        2.9026058056
 H        -6.9388723093        3.4169417574        0.1724818438
 H        -5.7659379983        4.0120224108        1.3805793412
 H        -9.2666235316        5.0821059469       -1.5094377197
 H       -10.4179713940        6.2084948671       -0.7471878284
 H       -11.2218501497        3.2835204956       -1.6790455461
 H       -11.8708533895        4.8316642073       -1.9180998998
 H       -13.8468431373        3.1606316540        3.7865914668
 H       -13.3430428974        4.4367360162        2.5283984752
 H       -12.0981905500        5.1403827191        4.2029333928
 H       -10.9763227314        4.0459348261        3.3688249824
 H       -13.2267671030        0.1860117738        7.2486794105
 H       -11.7946194838        0.3355004416        6.2535800106
 H       -13.2086643607       -0.3772991578        5.5952872279
 H       -10.9333556731        1.8984940837        7.4709320381
 H       -12.2348823289        2.5196302782        8.4285586357
 H       -10.8762071533        3.5758144616        7.6493329074
 H       -14.2180837788        4.3696299407        5.8072939238
 H       -12.9316952428        5.1343820052        6.6761226390
 H       -13.9482983534        3.9391810009        7.5601122594
 H       -14.7358889693        3.0313806391       -0.6549425830
 H       -14.7901044464        3.6036141159        0.9716921634
 H       -14.9658322077        1.9136844424        0.7353988179
 H       -12.8342997139        0.4737512474       -0.0935228216
 H       -11.2859082939        1.2393882853       -0.0455123765
 H       -12.5377899010        1.5883287374       -1.2766503013
 H        -9.4485324790        6.1292081201        3.0707897401
 H        -9.7876775476        7.0113520994        1.5231698437
 H        -8.2607227051        7.1597921558        2.3743532181
 H        -6.5494166810        6.4687870163        0.6314612274
 H        -8.0511914157        7.1587583027       -0.0330764038
 H        -7.3378125540        5.7257752231       -0.7950905915
 H        -7.2704388746       -1.9231914445       -0.4441456749
 H        -8.6650110124       -0.9658311529       -0.2952941802
 H        -7.9605715455       -1.7969489100        1.0653665449
 H        -5.7372041940       -1.4338385328        2.1344921468
 H        -4.7470326486       -0.3415364456        1.2670175586
 H        -5.1340335869       -1.8367358602        0.4389993184
 H        -6.1223206649        3.6754231956       -6.4978494440
 H        -7.3599640136        2.5202148388       -6.2625653477
 H        -5.7588574382        2.2027534553       -5.7602915386
 H        -5.8222143594        4.9010556167       -2.8056861501
 H        -5.7071263656        5.5111156776       -4.4438810870
 H        -4.7672166735        4.1216824786       -3.9012574603
 H        -9.6573553349        8.7204282815       -7.1844950058
 H        -8.1208737614        8.2257892862       -6.4904870476
 H        -8.6789577744        9.8622817101       -6.3659310948
 H        -9.5095426930        9.1729092344       -2.8483496787
 H        -9.4420028812       10.4687035459       -4.2159064114
 H        -8.1363986918        9.6524851643       -3.7430337664
 Na       -9.5917496850        2.2887900080        3.0021928446
