117

 C       -12.0574529529        9.7241849709       -4.5933382983
 C       -11.1925612207        8.6691728390       -5.1749160302
 O       -11.6545645945        8.0509418180       -6.0867747482
 C        -9.6434009978        8.4790765017       -4.9376479861
 C        -9.3792087507        6.9885361834       -4.3900982546
 O        -9.0239329256        6.7690194111       -3.2604810932
 C        -9.8674413366        5.8601556781       -5.3013416895
 C        -8.7529256139        4.9085394780       -5.6329861008
 C        -8.3452152390        4.0495755218       -4.4423186867
 O        -9.2280171447        3.7169392922       -3.7012703081
 C        -6.8777543827        3.5743412524       -4.2586884982
 C        -6.8841529967        2.6261694890       -2.9210999807
 O        -7.3772726692        3.0308846223       -1.8677440109
 C        -6.5363050278        1.1372058107       -3.1755209551
 C        -7.0501218278        0.2088788396       -2.1087577135
 C        -6.1319472159        0.2479821212       -0.8362694278
 O        -5.0098858394        0.7675628536       -0.9090174982
 C        -6.8078663360       -0.2794086567        0.5428910122
 C        -7.2537932893        0.9018381197        1.4977975618
 O        -8.3816038591        0.9697353853        1.8849883198
 C        -6.1480487441        1.9736761089        1.9279303178
 C        -6.4106204388        3.2648173653        1.1228706700
 C        -7.5783576740        4.1595369003        1.8768960159
 O        -7.8614918848        3.9289573610        2.9998319422
 C        -8.2759800408        5.2185975945        0.9834066143
 C        -9.5102138078        4.6261099938        0.4686181980
 O       -10.0406712626        3.6735227236        1.0496502520
 C       -10.1983311557        5.1250100777       -0.8282748197
 C       -11.4160017167        4.3010164224       -1.1946951837
 C       -12.3933590804        4.1021603764        0.0048353277
 O       -12.7932375008        5.0385177644        0.6370246873
 C       -12.9055842572        2.6844935900        0.5170539445
 C       -12.4698361323        2.5791315935        2.0644755251
 O       -11.6312855895        1.7502872031        2.3104814963
 C       -13.0630020807        3.5338854117        3.0554066806
 C       -12.0810860917        4.2957897284        4.0422145616
 C       -11.5783147775        3.3565374654        5.1493038350
 O       -10.4543453610        2.8224580314        5.1294674706
 C       -12.5176632957        3.0862364546        6.4137465531
 C       -13.3881471364        1.8462654699        5.9870412348
 O       -14.3164625700        1.9482407962        5.2433903720
 C       -13.0712535636        0.4748684722        6.5937265905
 C       -11.7490598932        2.8743583083        7.7803754528
 C       -13.5110375442        4.3318539469        6.5580191633
 C       -14.4126477660        2.6251817265        0.2359147987
 C       -12.3193285475        1.4702630214       -0.2269416120
 C        -8.7092494802        6.4083579801        2.0120151897
 C        -7.3424717674        5.8835081997       -0.0472158529
 C        -7.8676187851       -1.2880708217        0.2219468347
 C        -5.6761409167       -1.1021421470        1.3110968562
 C        -6.3013907450        2.8440819883       -5.4949758495
 C        -5.9877678664        4.7800901304       -3.9518294889
 C        -8.9256164647        8.6472035600       -6.2860595007
 C        -9.1663918541        9.5358923097       -3.9255234212
 H       -12.5497455777        9.4053994089       -3.7077648604
 H       -12.9450574964        9.8980149351       -5.1755151275
 H       -11.5387967403       10.6011642701       -4.3641225240
 H       -10.3077146202        6.2195273292       -6.1825857658
 H       -10.6438459406        5.3149406110       -4.7868905763
 H        -7.9749392491        5.4350539108       -6.0967034454
 H        -9.1153544202        4.2847057755       -6.4038613254
 H        -5.4551090731        1.0087930139       -3.2913979446
 H        -6.9503002880        0.9754388304       -4.1716132489
 H        -6.8491760686       -0.7926226696       -2.5555036912
 H        -8.0417190854        0.3502480498       -1.8238890512
 H        -5.1078719065        1.7716458923        1.5471946156
 H        -6.0829363796        2.0510477051        3.0047048160
 H        -6.8401340675        3.1069377797        0.0737771184
 H        -5.4657318287        3.8185223688        1.0106877763
 H        -9.4456751370        5.1319395210       -1.6178952652
 H       -10.3201899752        6.1356511264       -0.5333398214
 H       -11.1454037135        3.3923310648       -1.7566284650
 H       -11.9866672413        4.9969869175       -1.8831807667
 H       -13.7862043282        2.9179294950        3.5705252664
 H       -13.4704462635        4.3368668167        2.4020066229
 H       -12.6665999147        5.0978498710        4.4658204475
 H       -11.3307591684        4.8415037336        3.5135098306
 H       -13.1683301667        0.4382444878        7.6463427146
 H       -11.9939944251        0.1709613651        6.3847730231
 H       -13.6815834469       -0.2852591581        6.1116542977
 H       -11.1187044970        2.0343877513        7.7965571857
 H       -12.4476051007        2.6759887848        8.5330789242
 H       -11.1497711948        3.7650360530        8.0308194326
 H       -14.1987179691        4.3748502671        5.7395484787
 H       -12.8882096757        5.2303124387        6.6532559212
 H       -14.0234068298        4.1860851313        7.5358790871
 H       -14.5212038262        2.6708843256       -0.8445897041
 H       -14.9297214704        3.4840405456        0.5939744927
 H       -14.9625534527        1.7059435906        0.5151671690
 H       -12.9196560996        0.5880039116        0.0363707565
 H       -11.2793737833        1.2437980029        0.0086007499
 H       -12.4660428462        1.5219413261       -1.3070805664
 H        -9.4151063727        6.0636730527        2.7807190145
 H        -9.1959079368        7.1095642660        1.3550566422
 H        -7.8415743016        6.8985521176        2.4928274286
 H        -6.5836215169        6.4749659849        0.4545548828
 H        -7.8402788545        6.5620576485       -0.7012542978
 H        -6.8436455757        5.1170350798       -0.6264048456
 H        -7.4043615188       -2.0373714333       -0.5065400539
 H        -8.7550056979       -0.8331004660       -0.2983486224
 H        -8.0524887714       -1.9162106633        1.0910565551
 H        -5.7677000937       -1.1115804860        2.3871618781
 H        -4.7641950120       -0.5662487450        1.1549165446
 H        -5.6582248422       -2.2149558003        1.1099226756
 H        -6.5370066765        3.3764776529       -6.4238705870
 H        -6.7680017453        1.8763889935       -5.7595295137
 H        -5.2774168158        2.7141934026       -5.4281907757
 H        -6.3341425985        5.4267209395       -3.1301069116
 H        -5.9255090440        5.3801999943       -4.8567965997
 H        -4.9433866084        4.4961581929       -3.7474360593
 H        -8.9948297358        7.8240171563       -7.0080602808
 H        -7.8625490156        8.7551673777       -6.0645802108
 H        -9.2259161799        9.5255081761       -6.8428492572
 H        -9.8528936718        9.3814989909       -3.0760230696
 H        -9.2665618030       10.5750825866       -4.3186201767
 H        -8.1515461046        9.4747273767       -3.5727986426
 Na       -9.5335135973        2.4076649418        3.1081103933
