117

 C       -12.0973352835        9.7384497008       -4.6784380261
 C       -11.1328730527        8.6595720568       -5.3069781073
 O       -11.5579930709        7.8675478001       -6.1317893320
 C        -9.6190930998        8.4876428367       -4.8035645548
 C        -9.4290866219        6.9844750149       -4.2730637355
 O        -8.9436477474        6.7266118076       -3.1704127205
 C        -9.8701007453        5.8677164841       -5.2967487090
 C        -8.7962868506        4.8386212546       -5.7281641405
 C        -8.4446171745        3.9934380568       -4.4641721491
 O        -9.3164676869        3.7487488359       -3.6419448517
 C        -6.9349620503        3.5490621347       -4.2489192262
 C        -7.0097071721        2.6131413529       -3.0543629992
 O        -7.3121883767        3.0676120108       -1.9601416530
 C        -6.6764065637        1.0752758507       -3.1831650902
 C        -7.1234337478        0.3739622031       -1.8843319984
 C        -6.1362371285        0.3071389028       -0.6907222892
 O        -4.9847779237        0.6578611505       -0.8513284867
 C        -6.7475354649       -0.3346120519        0.6305233601
 C        -7.1828341926        0.8662738298        1.4846535585
 O        -8.3773492437        0.9848175006        1.7921131510
 C        -6.1074376160        1.8723783295        1.7981129079
 C        -6.3667308693        3.2208123121        1.0945428780
 C        -7.4004348885        4.1471995585        1.8153346282
 O        -7.7367571335        3.8194983933        2.9702226633
 C        -8.0440980783        5.2486128614        1.0079337083
 C        -9.5132796399        4.4615981030        0.4348521740
 O       -10.1454705414        3.6055107142        0.9794527165
 C       -10.2571035410        5.1303903966       -0.8809349484
 C       -11.5319397043        4.3448431625       -1.2577764742
 C       -12.4213668661        4.0696945652       -0.0262460049
 O       -12.9753724856        5.0395192257        0.5419868811
 C       -12.8756100166        2.6055571128        0.4691494986
 C       -12.3945632904        2.6031961899        1.9873627668
 O       -11.5294009428        1.8215064895        2.3852226176
 C       -13.0308881213        3.6418958504        2.9638462247
 C       -12.0151401294        4.2748858867        3.9635290339
 C       -11.6480248254        3.4214134420        5.1990555539
 O       -10.5528724008        2.8762363408        5.1880053609
 C       -12.6081002754        3.1975533824        6.3774334025
 C       -13.4132323013        1.8890595103        6.0702232550
 O       -14.2817689379        1.9298790280        5.2253425469
 C       -13.0103042792        0.5625178056        6.7504849355
 C       -11.7536487898        2.8840610420        7.5902952884
 C       -13.6146687688        4.3095947859        6.7745749573
 C       -14.4534592254        2.7073604737        0.2713195970
 C       -12.2672321716        1.4175193969       -0.3137398561
 C        -8.5094464271        6.4048837653        1.9174797267
 C        -7.2272877400        5.8249093673       -0.1383233905
 C        -7.9778524612       -1.2668750650        0.3634984559
 C        -5.6083156496       -1.1285564970        1.3682279636
 C        -6.2752455844        2.9571716735       -5.4639432678
 C        -6.1748783487        4.8484272013       -3.8318263810
 C        -8.8946282819        8.5696024477       -6.2482949712
 C        -9.0796588898        9.6658313366       -3.9682061088
 H       -12.6999715226        9.4229705979       -3.8566096557
 H       -12.9200285877        9.9174593156       -5.3425340213
 H       -11.5934325381       10.6583648735       -4.3907516486
 H       -10.3500789225        6.2763441673       -6.1283885177
 H       -10.6209416577        5.2903031847       -4.8547971119
 H        -7.9731599528        5.2808652923       -6.2215336907
 H        -9.2838653707        4.2496555611       -6.5155416033
 H        -5.5849189273        1.0991531782       -3.3037570794
 H        -7.0330845441        0.6972687549       -4.1332872710
 H        -7.2421359722       -0.7246799794       -2.1095463466
 H        -8.0812497781        0.7900182017       -1.4963339001
 H        -5.0900916317        1.6480708620        1.5296140502
 H        -6.1494146604        1.9234349536        2.9126450636
 H        -6.7246285482        3.2025614154        0.0525169967
 H        -5.4048631412        3.8567167416        1.1179607163
 H        -9.5035373282        5.0661213667       -1.6536266432
 H       -10.2057613483        6.1629073508       -0.5310144913
 H       -11.2021470782        3.4394469233       -1.7337014546
 H       -12.1900522126        4.9169584939       -1.9183857322
 H       -13.7725747445        2.9643981716        3.4629811518
 H       -13.4239489832        4.4283260130        2.3507205871
 H       -12.3339304793        5.2979593517        4.2216012890
 H       -11.0948405003        4.4933731660        3.4105344518
 H       -12.9787148933        0.7169169148        7.8032092329
 H       -11.9668047812        0.3256377984        6.5026164842
 H       -13.6215419752       -0.3343755014        6.5328985051
 H       -10.9948369081        2.1449418993        7.3765093538
 H       -12.3886755392        2.4295127068        8.3479635748
 H       -11.3449748843        3.7873905857        8.0394956143
 H       -14.4584371764        4.2881579876        6.0784392958
 H       -13.0698930561        5.2689373455        6.8137174974
 H       -13.9360093130        4.0625688448        7.8226948853
 H       -14.7419121033        2.6167983978       -0.7790717785
 H       -14.8276509505        3.6214069958        0.5984258118
 H       -14.9964964710        1.9073474067        0.7255940112
 H       -12.8913122220        0.4951376006       -0.0954844118
 H       -11.2327782497        1.1897825762       -0.0235733445
 H       -12.3300837845        1.5406105821       -1.4100086607
 H        -9.3650720738        6.0960794245        2.5673147988
 H        -8.8471442511        7.2064636483        1.2263262147
 H        -7.6978110423        6.7753608440        2.5414388322
 H        -6.4061345496        6.5085165995        0.2300959222
 H        -7.8079185439        6.4312010970       -0.7956290665
 H        -6.7868076929        5.0486678608       -0.6901921715
 H        -7.7684802525       -2.0251720752       -0.3738654461
 H        -8.7951052484       -0.6403136427        0.0024358045
 H        -8.1817404527       -1.8212323900        1.2534910196
 H        -6.0378141420       -1.3497616013        2.4267780106
 H        -4.7467276833       -0.5351936121        1.5713544082
 H        -5.4566863692       -2.1260528309        1.0495634324
 H        -6.3110680898        3.6751946745       -6.2588975453
 H        -6.7720476614        2.1611305060       -5.8788463211
 H        -5.2798151990        2.6552181747       -5.3043826970
 H        -6.7524300209        5.4260508417       -3.0831101083
 H        -6.0227324348        5.4539751912       -4.7345654339
 H        -5.2146480355        4.7047580819       -3.4611399053
 H        -8.9135825771        7.6341077811       -6.7966978562
 H        -7.8336153890        8.8500262801       -6.2289634194
 H        -9.3727754682        9.2684304843       -6.8919617970
 H        -9.6307978272        9.7131477290       -3.0034205944
 H        -9.3296553607       10.5674130302       -4.4785308492
 H        -7.9898666707        9.6687748978       -3.8114870676
 Na       -9.5919361177        2.4851659775        3.1549793744
