117

 C       -11.8886409753        9.8453396894       -4.8323946768
 C       -11.1015458660        8.6933877749       -5.5210789241
 O       -11.5056015379        8.1169245492       -6.5414809233
 C        -9.6241319960        8.4700927735       -5.0644708118
 C        -9.5439637205        6.9876037815       -4.4842742883
 O        -8.9268092623        6.8037205159       -3.4227013313
 C       -10.1866350063        5.7396926855       -5.2681309144
 C        -9.0860197904        4.6899757569       -5.5128852587
 C        -8.6036959971        3.8317699865       -4.3227547829
 O        -9.4636341522        3.1546158398       -3.7883939393
 C        -7.0955262698        3.5460177526       -3.9271092214
 C        -7.0987523668        2.6225028367       -2.7158671275
 O        -7.2425623041        3.1273586422       -1.6403280085
 C        -6.9192925625        1.1334476837       -2.9185101751
 C        -7.4843969063        0.2414633169       -1.7824907813
 C        -6.3877410525       -0.0308755557       -0.7125354114
 O        -5.2618219099        0.1909020088       -0.9619906407
 C        -6.7200521746       -0.4323361864        0.7716135830
 C        -6.9673526610        0.7836777885        1.6353464355
 O        -8.1259062399        0.9691004402        2.0352566336
 C        -5.8556208489        1.8285921192        1.8922889270
 C        -5.9993503916        3.1083210257        1.1196002516
 C        -7.1613573631        4.0003297704        1.6050487708
 O        -7.3381532418        3.8945584974        2.8197774792
 C        -7.9569999525        5.1174596048        0.8192418119
 C        -9.3093313836        4.5698982028        0.3693507885
 O        -9.8153158973        3.7532406792        1.1002227152
 C       -10.1415833187        5.1546881586       -0.8655682878
 C       -11.2773711176        4.1805165737       -1.3259855013
 C       -12.4373125464        4.1296956232       -0.2607519663
 O       -13.1369928072        5.1245784545       -0.0334591038
 C       -12.8956307262        2.7959341105        0.5031091657
 C       -12.4662985475        2.8198942987        2.0270527628
 O       -11.6044071365        2.0402855379        2.4192108103
 C       -13.2602971707        3.7782977568        2.9907623033
 C       -12.2251030112        4.3639724362        3.9440937614
 C       -11.7334163244        3.5449069403        5.1350304065
 O       -10.7584295013        2.8524507198        4.9854058496
 C       -12.5916678054        3.3012964283        6.4672968713
 C       -13.4063034926        1.8563743417        6.2308662172
 O       -14.2697296407        1.8434644356        5.3443970141
 C       -13.0370712758        0.7042681351        7.0794353285
 C       -11.7480162960        3.2439062985        7.7682276774
 C       -13.7129448228        4.3369577359        6.5304384681
 C       -14.4021644357        2.6973386369        0.4068470897
 C       -12.3133072916        1.5200489798       -0.1848151380
 C        -8.3123893738        6.3861475025        1.7313922648
 C        -7.1369947369        5.7906258278       -0.3409662682
 C        -8.0546125389       -1.3601147575        0.8620934971
 C        -5.5488655082       -1.1947128948        1.3379121066
 C        -6.4680720911        2.9204512245       -5.1955582060
 C        -6.3521701702        4.8979237289       -3.7703305119
 C        -8.7172952490        8.5785500834       -6.2696200456
 C        -9.1109447894        9.5100575026       -4.0163559088
 H       -11.9814147156        9.9084260465       -3.7733868453
 H       -12.8850634456        9.7953896695       -5.1742013449
 H       -11.4119948032       10.7849645479       -5.1252582793
 H       -10.6722309589        6.0229526840       -6.1834139597
 H       -10.9802619188        5.3688999757       -4.6784319678
 H        -8.2983524987        5.2608110459       -5.8823375940
 H        -9.3514217576        3.9718939964       -6.2638960078
 H        -5.8710702332        0.8613299441       -3.1488468016
 H        -7.3771022492        0.8646951035       -3.8650331438
 H        -7.8286747837       -0.6591239477       -2.2649387739
 H        -8.3260335709        0.7324468266       -1.2977470167
 H        -4.8986421470        1.4754574881        1.5656393464
 H        -5.7240467369        2.1232164876        2.9801657596
 H        -6.1282571876        3.0138240517        0.0248187350
 H        -5.1267958319        3.8807425322        1.2973113562
 H        -9.3409514268        5.2654848274       -1.5814080638
 H       -10.4851349321        6.1842581725       -0.7012134372
 H       -10.9836211064        3.1375963279       -1.4901264954
 H       -11.5991644558        4.6899831266       -2.2629261446
 H       -14.0072132510        3.1721072712        3.5437586831
 H       -13.5852372998        4.5188973130        2.3200998333
 H       -12.5238071846        5.3321759380        4.3156062067
 H       -11.2966958614        4.5328539512        3.4336667780
 H       -13.5109788031        0.8086628106        8.0787378872
 H       -11.9902694203        0.5857993763        7.2471075540
 H       -13.5325287679       -0.1887150722        6.6577147675
 H       -11.1562650248        2.3482172116        7.7289978194
 H       -12.3465747642        3.3248351327        8.6474303825
 H       -11.1235057292        4.0655440179        7.8506849854
 H       -14.3772362468        4.0365579342        5.7183499084
 H       -13.2905436221        5.3117672330        6.4105101270
 H       -14.2672910387        4.2466792945        7.4489731065
 H       -14.7509898150        2.6412743837       -0.6536168567
 H       -14.8514277044        3.6314229404        0.7779119008
 H       -14.8692214544        1.8414930106        0.8776649694
 H       -12.7530833905        0.6443492201        0.3005329768
 H       -11.2514763306        1.4340433564       -0.0524338534
 H       -12.4597464311        1.5663933741       -1.2432892674
 H        -8.7454231058        6.0591243490        2.6689201249
 H        -9.1551324792        6.8602145169        1.2233629096
 H        -7.4959116470        7.0513277604        1.8475798669
 H        -6.1830887688        6.1568467397        0.0901162850
 H        -7.6472628982        6.6391646560       -0.7427556293
 H        -6.8410826547        5.1817929322       -1.1515209009
 H        -7.7780685750       -2.2666353642        0.2668674441
 H        -8.9234115753       -0.8661318001        0.2991977894
 H        -8.4997362803       -1.6733069095        1.8738474346
 H        -5.9353496659       -1.5767984328        2.3382440874
 H        -4.6211096127       -0.6413881705        1.5829324986
 H        -5.3221706261       -2.0587517956        0.7849217623
 H        -6.5354838574        3.5749087058       -6.0623175985
 H        -6.8016941069        1.9353167414       -5.4382088686
 H        -5.3552521592        2.7545486812       -5.0538286538
 H        -7.0808064870        5.5948286712       -3.3070827213
 H        -5.8966420608        5.3072002275       -4.7108507249
 H        -5.5361317687        4.8222436425       -3.0742676117
 H        -9.2299110731        8.2787152176       -7.1833063626
 H        -7.8681897461        7.8591719853       -6.2204990178
 H        -8.2577943822        9.5441324286       -6.4486968656
 H        -9.6035224448        9.7998552781       -3.0828968348
 H        -9.1772248280       10.4379121394       -4.5148058484
 H        -8.0469514621        9.2286760646       -3.9084779585
 Na       -9.4212354884        2.7477871111        3.0085363735
