117

 C       -11.7165502944        9.7820696627       -4.8188409629
 C       -10.9628529439        8.7044253409       -5.7579076862
 O       -11.4926885514        8.3277375651       -6.7889233764
 C        -9.5455984715        8.2937735119       -5.1994660311
 C        -9.5456729889        6.8357125140       -4.5706591867
 O        -9.2459745295        6.7046588866       -3.3831728044
 C       -10.1648304990        5.6319738027       -5.3190098269
 C        -9.0343155836        4.6737358871       -5.6951118922
 C        -8.8074708259        3.6209424688       -4.6022686709
 O        -9.7778498168        3.1877390662       -4.0029065975
 C        -7.3184574678        3.2773585037       -4.1638457997
 C        -7.4845898835        2.3733239356       -2.8007769660
 O        -7.6456890193        2.9009998948       -1.7407100825
 C        -7.5233009700        0.8425994663       -2.8561887520
 C        -7.8046159893        0.2535467728       -1.4705350064
 C        -6.4432428161       -0.0553244848       -0.6940125178
 O        -5.3608027884        0.0304245753       -1.1754821748
 C        -6.6895151698       -0.4658517177        0.9243027118
 C        -6.8945998880        0.8711187272        1.6595799176
 O        -7.9295765008        1.0753348798        2.3120339088
 C        -5.8088050235        1.9380812969        1.8112565417
 C        -6.1632432999        3.2323956735        1.0543792996
 C        -7.0893682331        4.2688800654        1.8543747886
 O        -7.4633764159        4.0174825966        3.0140272767
 C        -7.8043629966        5.3786926215        1.0864893676
 C        -9.1397912967        4.5932397716        0.5601729636
 O        -9.7052434012        3.7574248916        1.2109059845
 C        -9.8124213767        4.8876093521       -0.8103402050
 C       -10.9274566930        3.8942394922       -1.1352413161
 C       -12.1144408632        4.1004455140       -0.2322317846
 O       -12.3766409483        5.2300984485        0.1352187216
 C       -12.8596978071        2.8213957591        0.3775360816
 C       -12.4191712935        2.9524047835        1.8970408470
 O       -11.6369119662        2.1615170196        2.3555213502
 C       -13.0698700515        4.0309531898        2.7751560100
 C       -12.1080821774        4.5794316169        3.8840614846
 C       -11.7466504229        3.5741087056        5.0177504574
 O       -10.7560544326        2.9300452993        5.0170845022
 C       -12.6890014480        3.4325761737        6.2801373795
 C       -13.2994134566        2.0005836282        6.2703060850
 O       -14.1269421562        1.8632742713        5.3937201424
 C       -13.0183212255        0.8309046073        7.2085458277
 C       -11.8897180237        3.5446510968        7.5861298216
 C       -13.8932487598        4.4121597250        6.2863047136
 C       -14.3913167620        2.9303563843        0.3540635383
 C       -12.3149092314        1.5019355541       -0.3159573804
 C        -8.4275341930        6.5626955917        1.9555956397
 C        -7.0506531005        5.9729907375       -0.0457225084
 C        -7.9827286477       -1.3253965690        1.0010276348
 C        -5.4161289545       -1.0862196456        1.4501465563
 C        -6.6110564341        2.5972991281       -5.2905205562
 C        -6.7167898243        4.6144796581       -3.6437030386
 C        -8.5442450104        8.3522776736       -6.4525718600
 C        -9.0288286925        9.3027921028       -4.1855289325
 H       -11.4393225813        9.7244556542       -3.7593602764
 H       -12.8029886311        9.7271038406       -4.9277817527
 H       -11.3919912202       10.8216996548       -5.1004533130
 H       -10.6969856273        6.0202715504       -6.2577281334
 H       -10.9118084394        5.0953157880       -4.7135601716
 H        -8.1494135805        5.2849069148       -5.7158113461
 H        -9.2246596352        4.2427071825       -6.6818994558
 H        -6.6451411477        0.4750566546       -3.3801560639
 H        -8.2386600285        0.6107951738       -3.6465109069
 H        -8.3998421420       -0.6159166524       -1.5398205975
 H        -8.4314962141        0.9759870795       -0.9387733758
 H        -4.8132116646        1.7915745806        1.4952454593
 H        -5.7827159158        2.1700793249        2.9122887413
 H        -6.7534436298        2.9519591402        0.1857635132
 H        -5.2689745055        3.8313897044        0.6824900179
 H        -9.1132786960        4.9327128797       -1.6106595064
 H       -10.1454211382        5.9355424805       -0.7487289464
 H       -10.5228594769        2.8611693173       -1.2351317225
 H       -11.3240035544        4.1734023045       -2.1662619188
 H       -13.9526649801        3.4382998221        3.1382918008
 H       -13.3408021173        4.8588273358        2.1663938036
 H       -12.6940155372        5.3687415559        4.3206660129
 H       -11.1805688731        4.9552780242        3.4825203824
 H       -13.1788424407        1.0547973794        8.3139418245
 H       -12.0424582366        0.4625888864        7.0922222944
 H       -13.7652298661        0.0695737728        7.0035380990
 H       -11.0816806151        2.7686764889        7.6261948329
 H       -12.6644952170        3.4858629061        8.3879275196
 H       -11.3331757328        4.4527787302        7.6610985998
 H       -14.4095717309        4.3364907170        5.3194558426
 H       -13.5148442128        5.3883371382        6.4521238916
 H       -14.5605568233        4.0721451673        7.0232083516
 H       -14.7349846863        2.8122480232       -0.6899239048
 H       -14.7208491223        3.9480407413        0.7369384723
 H       -14.9454845866        2.2839221201        1.0123877157
 H       -12.6731687619        0.6526850342        0.2580341592
 H       -11.2395758777        1.4843888426       -0.2226258226
 H       -12.6184891257        1.4385632558       -1.3659529908
 H        -9.3529759899        6.3093226020        2.4580468025
 H        -8.6200879976        7.3870709984        1.2616813979
 H        -7.7007690450        6.9459625711        2.6325408272
 H        -6.0669775357        6.2643378640        0.3212503519
 H        -7.5292925488        6.8001244058       -0.5763308246
 H        -6.8102095434        5.2133216165       -0.8025288257
 H        -7.9127888857       -2.1123827833        0.2574800888
 H        -8.7912956173       -0.7326735765        0.5923963292
 H        -8.4191436246       -1.6854626087        1.9822427003
 H        -5.3540653539       -0.7511654999        2.4706227924
 H        -4.4325323122       -0.9767907174        0.9482147812
 H        -5.5161348414       -2.1271398887        1.4739534634
 H        -6.1412079439        3.3146663935       -5.9838576070
 H        -7.3000499643        1.9225233304       -5.8641873176
 H        -5.7127597083        1.9344335645       -4.9230716094
 H        -7.2062979826        4.9681425476       -2.7533086676
 H        -6.9383750426        5.4108390327       -4.3867354353
 H        -5.6484162212        4.4992286706       -3.4983824355
 H        -8.7478945983        7.4866716365       -7.0653588959
 H        -7.4999202766        8.2019103599       -6.1594908680
 H        -8.5446644255        9.2650505915       -7.0589398544
 H        -9.6226745525        9.3947091208       -3.2691674763
 H        -9.0524653344       10.2966991755       -4.5924745438
 H        -8.0256682840        9.0037692144       -3.8186714777
 Na       -9.3253835253        2.6142859682        3.3283322880
