117

 C       -11.7658949586        9.6085805248       -4.9129186430
 C       -10.9249776408        8.6808150295       -5.7011293629
 O       -11.3593886748        8.1939537302       -6.7024748080
 C        -9.4282693171        8.2722534240       -5.2134398720
 C        -9.6642417963        6.8973159744       -4.5518271213
 O        -9.3524075328        6.5844724169       -3.4278560741
 C       -10.2248929232        5.7649889181       -5.4706892058
 C        -9.0890469533        4.7717469463       -5.8633067274
 C        -8.8767136217        3.7291929307       -4.5917885325
 O        -9.8855689654        3.2549891182       -4.1384628628
 C        -7.4402217425        3.2353546190       -4.1549564253
 C        -7.6521398201        2.3417060851       -2.8891935575
 O        -7.6745837095        2.9411807269       -1.8032833072
 C        -7.6115413747        0.7594755951       -2.8381600373
 C        -7.8190400149        0.1449143948       -1.4313016841
 C        -6.5873884554       -0.0871006882       -0.6358146818
 O        -5.4599738938        0.1054150641       -1.1266874203
 C        -6.7059598373       -0.4032902828        0.8652139048
 C        -6.9622258022        0.9794609259        1.7256382726
 O        -8.0475507317        0.9959198632        2.2377422208
 C        -5.8237832025        2.0133555984        1.7920989386
 C        -6.2600279265        3.3172852611        1.0494655786
 C        -7.1391846427        4.2882953904        1.8952247307
 O        -7.3210305763        4.0041109036        3.1082503168
 C        -7.8870777997        5.3959792832        1.1103588616
 C        -9.1764904635        4.5232153908        0.5930742000
 O        -9.7448462560        3.7387374038        1.3129288980
 C        -9.6194834956        4.9120296059       -0.8414887114
 C       -10.7288488354        3.9632059362       -1.2059275569
 C       -11.9242855555        4.1057198302       -0.2244558698
 O       -12.2880512621        5.1292349831        0.2306197010
 C       -12.7364809403        2.8570710747        0.4029829292
 C       -12.4007538089        2.8103585166        1.9510777628
 O       -11.5391041846        2.0401645433        2.3569817559
 C       -13.0187604070        4.0282306340        2.7774215346
 C       -12.0253735101        4.5594441730        3.8875007996
 C       -11.7395592022        3.6362526731        5.1149031213
 O       -10.7249803978        2.9342819319        5.1009064042
 C       -12.7326869141        3.5178264918        6.2707939589
 C       -13.3975071755        1.9935665699        6.1342409674
 O       -14.1706363298        1.7698798036        5.2511627342
 C       -12.9414418092        0.9894617868        7.1456623068
 C       -11.8936418756        3.6834168122        7.6426719230
 C       -13.9759218780        4.4940489779        6.3072456476
 C       -14.2874961439        3.1958565865        0.3027259088
 C       -12.4107592464        1.5311304277       -0.2812973720
 C        -8.4561363611        6.4612709796        2.0418575167
 C        -7.0273455075        5.9337296006       -0.0292642458
 C        -7.8711244418       -1.2757684832        1.3212146998
 C        -5.3756099789       -1.0216827722        1.4009229023
 C        -6.6523848647        2.5604645959       -5.2469336512
 C        -6.7308227953        4.4847382268       -3.6745172309
 C        -8.5768970655        8.2413926559       -6.5188548254
 C        -8.8106188871        9.2586864618       -4.2145849429
 H       -11.8928964818        9.2649122038       -3.8943972802
 H       -12.6922837942        9.8441069170       -5.4417142043
 H       -11.1947227746       10.5158635350       -4.8048064490
 H       -10.6765493930        6.1534665305       -6.3582260351
 H       -10.9002839494        5.1343726858       -4.9917786751
 H        -8.2028209132        5.2764155696       -6.1765051849
 H        -9.5062179347        4.2252344551       -6.6465072221
 H        -6.7219798091        0.5221515563       -3.3924557150
 H        -8.3319908559        0.3497119258       -3.5500342788
 H        -8.3786004074       -0.7475917434       -1.4696527974
 H        -8.5442221302        0.8389294674       -0.9047239910
 H        -4.8576225753        1.8190938889        1.2919572269
 H        -5.5881961389        2.2884003904        2.8324576138
 H        -6.8224474034        3.0210551736        0.0968072992
 H        -5.3725779882        3.9901247268        0.7434345830
 H        -8.7629507299        4.9880591441       -1.5089759718
 H        -9.9393854437        5.9840404366       -0.7889463222
 H       -10.3324532603        2.9139669195       -1.1818679451
 H       -11.1515508227        4.1087246443       -2.1975712268
 H       -13.9374180998        3.5622589982        3.1247655677
 H       -13.2155024453        4.8219457754        2.0669476525
 H       -12.3795992581        5.5132726396        4.1825715305
 H       -11.0358826062        4.6011570450        3.4639523909
 H       -13.1279974267        1.3410637218        8.1872207521
 H       -11.9083387016        0.6621378300        7.0433595588
 H       -13.6170883903        0.1531408269        7.0597323254
 H       -11.1984105671        2.9038258918        7.8255945280
 H       -12.5903105022        3.8406264799        8.4267852633
 H       -11.2496226630        4.5261817547        7.5069305616
 H       -14.4826242654        4.3419015642        5.3647207408
 H       -13.6821824966        5.5219267711        6.4069451252
 H       -14.5974853446        4.1532634773        7.0886854851
 H       -14.6530573705        2.9729148331       -0.6900338515
 H       -14.6320417694        4.2107207512        0.6494273437
 H       -14.8496393992        2.5737405879        1.0263798841
 H       -13.0194482378        0.7588524462        0.1192730266
 H       -11.3623393547        1.3329752658       -0.0326973391
 H       -12.5748946585        1.6017513263       -1.3599064956
 H        -9.2796613142        6.0599424402        2.5910974024
 H        -8.7696873203        7.3075979811        1.4662450939
 H        -7.7059357733        6.8526369050        2.7276665478
 H        -6.0772112123        6.1037346382        0.3369013124
 H        -7.3931420217        6.8531310236       -0.5037785704
 H        -6.8564227576        5.2065793916       -0.8554434352
 H        -7.7264762406       -2.2896319859        0.7913621534
 H        -8.9510141771       -0.9993467464        1.1407920492
 H        -7.8096061026       -1.4144469423        2.4320263465
 H        -5.3828413072       -0.8736436607        2.4213450764
 H        -4.4200439469       -0.6869236772        0.9574417766
 H        -5.2935467729       -2.1267179524        1.2129383359
 H        -6.3009982138        3.3199852091       -5.9775536789
 H        -7.2977184468        1.8120748074       -5.8402909923
 H        -5.7622309660        2.0593939561       -4.8959600480
 H        -7.1098189013        4.9199698465       -2.7740271625
 H        -6.8264418563        5.2711552729       -4.4096675460
 H        -5.6548621334        4.1292268804       -3.5601471953
 H        -8.9274567070        7.5012787129       -7.2485012259
 H        -7.5651994446        7.9160359884       -6.2889145725
 H        -8.4405154961        9.2403385540       -6.9990347304
 H        -9.4066623997        9.2947761458       -3.3180707007
 H        -8.8179745321       10.3250188481       -4.6156338683
 H        -7.8229956428        8.9842561301       -3.8472334934
 Na       -9.3288235278        2.6320967546        3.2951409945
