117

 C       -11.5833204259        9.4736050388       -4.7697583551
 C       -10.8378187089        8.6454139362       -5.8040418627
 O       -11.3439015391        8.2404694777       -6.8102399118
 C        -9.3192186221        8.0976424143       -5.3959208621
 C        -9.6108725911        6.6958909154       -4.7685634897
 O        -9.5691326698        6.5218979394       -3.5610186941
 C       -10.0016371827        5.6043898168       -5.7096174826
 C        -8.9722900583        4.4616291139       -5.7823598483
 C        -9.0166991558        3.5058258823       -4.6008109281
 O       -10.0726518311        3.1367304472       -4.1122749114
 C        -7.6121445761        3.0467784876       -4.1321174061
 C        -7.8036519131        2.2744960688       -2.7336423755
 O        -7.8298193092        2.9141430830       -1.7058584413
 C        -7.8708907752        0.7224267094       -2.7467975315
 C        -8.1239138053        0.0641071855       -1.3525194050
 C        -6.7902087018        0.0791852836       -0.6098843682
 O        -5.7311834488        0.4211339505       -1.1327568062
 C        -6.6745228492       -0.3441494217        0.8748796544
 C        -6.9555689186        0.9395109811        1.6817889677
 O        -8.0729408238        1.2018875523        2.1263236263
 C        -5.8116637513        1.9860043168        1.8826475049
 C        -6.1545107887        3.3191170896        1.1080231623
 C        -7.0933408824        4.2090599313        1.9836577987
 O        -7.2366203211        4.0416664565        3.2120963291
 C        -7.9069855976        5.4160547382        1.2829831207
 C        -9.0729494722        4.7417416549        0.6201463454
 O        -9.7681913752        3.9589322455        1.2453584757
 C        -9.5292228888        4.9502726943       -0.8275270758
 C       -10.6740423332        3.9694278070       -1.1418791032
 C       -11.8088826642        4.0842914445       -0.1248529142
 O       -11.9869235095        5.1771937851        0.3076026840
 C       -12.7137779615        2.9478890875        0.4257557134
 C       -12.3500674977        2.8348978787        1.9118527603
 O       -11.5169955215        2.0329342247        2.2758037778
 C       -12.9300309555        3.8253539563        2.9343374560
 C       -11.8114058562        4.4573088063        3.8533355772
 C       -11.6329761150        3.6740383923        5.1857578798
 O       -10.6472869516        3.0167588834        5.3006689865
 C       -12.7030367530        3.6607550047        6.2825374206
 C       -13.3044917461        2.1725584876        6.0386466505
 O       -14.1054019639        1.9874613974        5.1541566273
 C       -12.8876076471        1.0306795772        6.9709114325
 C       -12.2088373559        3.8829043486        7.8064988086
 C       -13.8632632088        4.6245315172        5.8674536108
 C       -14.1781383376        3.4043204092        0.2812118131
 C       -12.3991304513        1.6245541744       -0.2807278450
 C        -8.4245740355        6.3259677823        2.3512030553
 C        -7.0440624550        6.2831445822        0.3203720557
 C        -7.7010370025       -1.5124156879        1.2774364002
 C        -5.2640020146       -0.9336122833        1.1987540885
 C        -7.1360463128        2.1056212434       -5.3166622413
 C        -6.8024328720        4.3143558927       -3.8989813418
 C        -8.3668564121        8.0762013911       -6.5752069826
 C        -8.7814777611        8.9930851824       -4.3158833361
 H       -12.5118483566        8.9058663673       -4.5785136742
 H       -11.7089460426       10.5105430552       -5.1181078902
 H       -11.1139575471        9.6296406818       -3.7722588671
 H       -10.1449508208        6.0054877850       -6.7962389734
 H       -10.9581227502        5.1940393332       -5.2460938968
 H        -7.9616286177        4.8836440789       -6.0384228799
 H        -9.2610876871        3.7973109909       -6.6690867649
 H        -6.9252857165        0.2598952483       -3.1071659102
 H        -8.5197583728        0.3389672718       -3.5461552040
 H        -8.6145506370       -0.8566930609       -1.5066954843
 H        -8.8558403017        0.6189527730       -0.7388124905
 H        -4.8128507524        1.7232585375        1.5870073066
 H        -5.8050271057        2.3591072200        2.9182108121
 H        -6.5834830521        3.1921394777        0.1787738277
 H        -5.2932226920        3.9820566197        1.0472837025
 H        -8.7719631082        4.8862673742       -1.5808614657
 H        -9.9081571077        5.9309934048       -1.1017582945
 H       -10.2547842868        2.9526233342       -1.2693818624
 H       -11.0623400080        4.1849913928       -2.1536522158
 H       -13.5558986696        3.1933472305        3.6280692847
 H       -13.5383376682        4.5189241359        2.3833552496
 H       -12.0588934238        5.5227248859        4.0516111333
 H       -10.7826303365        4.4072912817        3.4839994734
 H       -13.3806183628        1.1947262839        7.9974435750
 H       -11.8488108149        1.0341952569        7.1216865166
 H       -13.1694657770        0.0629377953        6.6199439989
 H       -11.2282392360        3.3450067367        7.9971574936
 H       -12.9823172093        3.3386192130        8.4268038796
 H       -12.1787768530        4.9673262503        7.9668208257
 H       -14.3431663089        4.2124666525        4.9286244787
 H       -13.4639618939        5.6271531373        5.6395179128
 H       -14.5433449010        4.7198470113        6.7014210519
 H       -14.3389743650        3.5055006419       -0.7655801802
 H       -14.4295248056        4.4030838568        0.7110569842
 H       -14.8749645306        2.7210538646        0.6755360279
 H       -13.2212039045        0.9386981741       -0.1414090559
 H       -11.4562815888        1.2886849296        0.1752361829
 H       -12.3803363598        1.7737830173       -1.3713836540
 H        -8.6959024933        5.7077152610        3.2154295870
 H        -9.3220106623        6.8368184650        1.9484051163
 H        -7.7289829197        7.0979083020        2.6996954645
 H        -6.3038795509        6.8874287938        0.7927966402
 H        -7.7052945213        7.0113803712       -0.2028190578
 H        -6.5443439245        5.7162418211       -0.5130441989
 H        -7.4723020828       -2.4194217891        0.7901087732
 H        -8.6571450582       -1.2544180421        0.9878970957
 H        -7.7680023977       -1.7165743486        2.3123182731
 H        -5.2987947146       -1.2441012694        2.1853259978
 H        -4.3981463864       -0.1941699175        1.0619330319
 H        -5.0555552571       -1.8815323576        0.6569642894
 H        -7.3377402380        2.4195262083       -6.3033250062
 H        -7.8329305941        1.2358336351       -5.2529715408
 H        -6.1141094796        1.7783667531       -5.1336416527
 H        -7.5139269603        5.0329786303       -3.6152472317
 H        -6.3027061889        4.6886055547       -4.7942762457
 H        -6.0942274760        4.1635171258       -3.0779646084
 H        -8.9491949897        7.9746185604       -7.4790962770
 H        -7.6472598563        7.2765815313       -6.5677699826
 H        -7.8559933352        9.0454178760       -6.6812929093
 H        -9.2708154804        9.0063395456       -3.3702787790
 H        -8.6038287616        9.9560026155       -4.7966944809
 H        -7.7358228973        8.7662564070       -4.0596444254
 Na       -9.4713098730        2.8585228746        3.3812882730
