117

 C       -11.5649175926        9.4707467512       -4.7786402746
 C       -10.7084669795        8.6695987564       -5.8375423687
 O       -11.1670869420        8.4544479859       -6.9419487434
 C        -9.3122695040        8.0049954605       -5.3988561570
 C        -9.6333098989        6.5904252138       -4.9287748276
 O        -9.5476444163        6.2582337354       -3.7405301278
 C       -10.0564791266        5.4591280248       -5.8463832072
 C        -9.1939972885        4.1827049416       -5.8335993322
 C        -9.1502523482        3.3580715540       -4.5601334496
 O       -10.1525984004        2.9576647653       -3.9837108770
 C        -7.7359095778        2.7506799562       -4.0716213317
 C        -7.8689456902        2.0960778414       -2.6834237221
 O        -7.6378695400        2.7389707063       -1.6568509285
 C        -8.3498624971        0.6417451711       -2.6416623144
 C        -8.1044575685        0.1712493372       -1.2248340569
 C        -6.6685392702        0.2447498986       -0.6825280188
 O        -5.6998041205        0.6969156770       -1.2205786111
 C        -6.6760242756       -0.2686505526        0.7870476805
 C        -6.9426341911        0.9729992121        1.7453844729
 O        -8.1186908135        1.0700896296        2.0966932573
 C        -5.8076298898        2.0018895545        1.9104927125
 C        -6.0535015418        3.4233809464        1.1842802949
 C        -7.0253889884        4.3635003657        2.0901509559
 O        -7.4201941382        3.9353317556        3.1291578475
 C        -7.7864578412        5.5822497097        1.4273229720
 C        -9.0360281727        4.7749914248        0.7344445136
 O        -9.6464586802        3.9237203723        1.3726140337
 C        -9.5285860766        5.1217700533       -0.5690419781
 C       -10.7270355788        4.1535166220       -0.9890334565
 C       -11.9171813306        4.3398057011       -0.1122023590
 O       -12.1957802795        5.4393015208        0.4234188880
 C       -12.7267415030        3.0316574739        0.3683287138
 C       -12.2263072729        2.8598776491        1.8808353007
 O       -11.3486675174        2.0898697852        2.2051825650
 C       -12.8467799339        3.8988431404        2.8908883951
 C       -11.8785176428        4.4620652475        3.9043111993
 C       -11.6045559925        3.7342851062        5.1590848923
 O       -10.4978270871        3.2068782067        5.4136243210
 C       -12.7598811956        3.7415195613        6.2315222001
 C       -13.3704752589        2.2466834476        5.9781715046
 O       -14.2112546700        2.0011176562        5.1549306485
 C       -12.8297169538        1.1326318429        6.8627578541
 C       -12.2466748244        3.8942019606        7.6558722876
 C       -13.9169698247        4.8552144610        5.9943751514
 C       -14.1864333242        3.1691187418        0.1906290014
 C       -12.3776360000        1.7973881811       -0.4204448931
 C        -8.4800567601        6.4550831189        2.5113088964
 C        -6.9798677863        6.4191907120        0.3992587445
 C        -7.7913365687       -1.2878420483        1.0732536618
 C        -5.3001048386       -0.9913914338        1.0718720690
 C        -7.0967925543        1.7041006559       -5.0933468820
 C        -6.6133452718        3.8898020119       -3.9421351038
 C        -8.5335619123        7.9769185057       -6.7196448533
 C        -8.6073695371        8.8387589931       -4.3096148889
 H       -12.4848392262        9.8098498387       -5.2194671853
 H       -10.9970896455       10.1946704435       -4.2057622778
 H       -11.9164363128        8.8070644239       -3.9907125939
 H       -10.1614597126        5.7358432680       -6.8311381487
 H       -10.9776142596        5.1959464047       -5.4062116224
 H        -8.2396567423        4.4084204714       -6.2480541066
 H        -9.6154524168        3.4901059227       -6.5152769773
 H        -7.8824690435       -0.0498669572       -3.3453680771
 H        -9.3970127550        0.5850663498       -2.9786303267
 H        -8.6702923788       -0.8061988341       -1.1018094880
 H        -8.6891622101        0.8236287151       -0.5991331708
 H        -4.8839629526        1.6570946796        1.4254416529
 H        -5.6633190415        2.2983438684        2.9619614977
 H        -6.6613203683        3.1134482496        0.2311053871
 H        -5.1119233151        3.9669091415        0.9018364706
 H        -8.7554371983        5.0911195552       -1.3877039418
 H        -9.7808496350        6.1875258001       -0.6680825814
 H       -10.3444222371        3.1358294427       -0.9274258417
 H       -10.9705139266        4.2159841635       -2.0606004120
 H       -13.6858672713        3.4300897279        3.3616129661
 H       -13.2300020697        4.6902413231        2.2154437462
 H       -12.2246144234        5.4321391854        4.2602008726
 H       -10.9315185962        4.7316354654        3.4196025521
 H       -13.4182536586        1.0832791143        7.7269387948
 H       -11.7665593254        1.2470308358        7.1936830897
 H       -12.8903146471        0.1579081486        6.3351968471
 H       -11.4530689541        3.1978864109        7.8006878440
 H       -13.0191648046        3.5677342520        8.3203637437
 H       -11.9892732196        4.9429332637        7.8086808410
 H       -14.4412703643        4.7879840475        5.0919307299
 H       -13.5843812824        5.8488777883        6.1940194230
 H       -14.5876455151        4.6743501856        6.8443668306
 H       -14.5394186404        3.1536673280       -0.8797864293
 H       -14.4885911547        4.1446632385        0.5242143815
 H       -14.7398667436        2.3960707511        0.8030929728
 H       -12.9067611376        0.9536544931        0.0353306565
 H       -11.3299235347        1.6347976525       -0.4846844802
 H       -12.8668267917        1.9195749311       -1.3564525735
 H        -9.0365026506        5.7711879841        3.1523465324
 H        -9.1527074232        7.1846667202        2.0884773675
 H        -7.7884034362        6.9374016390        3.1788971919
 H        -6.0170110425        6.8351590782        0.8340694403
 H        -7.4317065383        7.2734386796       -0.0691038227
 H        -6.6891852076        5.7708847784       -0.3894426081
 H        -7.9143203418       -2.0614535087        0.2789525107
 H        -8.7973531833       -0.7873310981        1.2359855775
 H        -7.5666369623       -1.9182161598        1.9859057693
 H        -4.8587697247       -0.9055653398        2.1309670535
 H        -4.6285503930       -0.5412891996        0.4006136894
 H        -5.4062023586       -2.0441968598        0.9862289589
 H        -6.7039580870        2.3166921621       -5.9620172648
 H        -7.8053929485        1.0681808055       -5.6040823678
 H        -6.2954035452        1.1368841304       -4.5396103011
 H        -7.0822729926        4.7881061086       -3.4264526156
 H        -6.1339423814        4.1070873528       -4.9029814976
 H        -5.8629801604        3.5091217805       -3.2783094613
 H        -9.0949057170        7.6203128349       -7.5934780759
 H        -7.5827897647        7.4111792859       -6.6342630139
 H        -8.3527233835        9.0068967369       -6.9575088827
 H        -8.9001328138        8.3990733296       -3.3371511685
 H        -8.8357202419        9.8724758065       -4.3995845580
 H        -7.5412812440        8.9618512545       -4.3891947736
 Na       -9.3031840683        2.7401991269        3.3114527976
