117

 C       -11.4912549857        9.3090880249       -4.7738148045
 C       -10.7342511991        8.5959930765       -5.8393529954
 O       -11.0918533593        8.6011370656       -6.9921661650
 C        -9.3655584784        7.7667473493       -5.4158217433
 C        -9.5989059444        6.3450110593       -4.9623972612
 O        -9.3911309861        6.1404480278       -3.7979453495
 C       -10.1120927340        5.2693450440       -5.8682502544
 C        -9.1654101535        4.0264685221       -5.9981921845
 C        -9.0705003177        3.2578066710       -4.6132387816
 O       -10.0368849379        2.9915144953       -3.9467065226
 C        -7.6921443317        2.7077695954       -4.1486655879
 C        -7.9089973584        2.1366885779       -2.6829341095
 O        -7.6114609391        2.8520747513       -1.7218768144
 C        -8.6002438318        0.7718827803       -2.5410544885
 C        -8.3412536612       -0.0220006900       -1.2246963111
 C        -6.9372359463        0.1167054630       -0.6555586627
 O        -6.0535832686        0.6926970531       -1.2768370208
 C        -6.6499055967       -0.3266290101        0.8953497032
 C        -6.9058180195        1.0524107702        1.7810302200
 O        -7.9982598763        1.1729786981        2.2563861051
 C        -5.7387430558        2.0842414008        1.8084894293
 C        -6.1474017189        3.5030571865        1.2831819665
 C        -7.0658485211        4.2743354853        2.1676682620
 O        -7.2430462114        4.0285931427        3.3889035921
 C        -7.7785311959        5.5040152352        1.4622051112
 C        -9.1165657960        4.8848356783        0.7572056589
 O        -9.6995687151        3.9956083873        1.3404984164
 C        -9.6430334211        5.4002065029       -0.5804474168
 C       -10.7750343490        4.5269911012       -1.1234473509
 C       -12.0346511092        4.4528449815       -0.1712876758
 O       -12.4620338996        5.4340843412        0.3277445059
 C       -12.6227302760        3.0975374729        0.3823693017
 C       -12.2095098300        2.9397554994        1.8808657536
 O       -11.3492221690        2.1028513450        2.1747315456
 C       -12.8363503944        3.8971628534        2.9031649151
 C       -11.8538693371        4.6358014370        3.8203133172
 C       -11.6394040210        3.8673534223        5.0855385937
 O       -10.5937971859        3.2849378558        5.2657554305
 C       -12.7723043381        3.7950748201        6.2013535709
 C       -13.3770771633        2.2928533372        5.9932829922
 O       -14.2904607575        2.2209189120        5.1792890082
 C       -12.8167826085        1.0764523605        6.7293763499
 C       -12.0707371612        3.8740656651        7.5625379603
 C       -13.9534006550        4.7952190001        6.1063336445
 C       -14.1479755534        3.2993680887        0.3241742128
 C       -12.1244356811        1.7842255960       -0.4539975495
 C        -8.1876563164        6.5240097900        2.6635871039
 C        -6.8144705949        6.2192598255        0.4642151523
 C        -7.6333204460       -1.3946039103        1.3067853563
 C        -5.2008982024       -0.7103887335        1.0606687938
 C        -7.2929838697        1.5788923949       -5.1578951919
 C        -6.6463639376        3.8397379015       -4.0742205476
 C        -8.4954927657        7.7985007835       -6.7770827129
 C        -8.5323037805        8.5840795491       -4.3985918483
 H       -11.6279580478       10.3714208811       -4.9918549178
 H       -11.0340706925        9.0968561852       -3.8192683812
 H       -12.5008353094        8.9645534414       -4.6620852802
 H       -10.3545964595        5.7212963106       -6.8825272579
 H       -11.0241790240        4.7651489937       -5.4372671169
 H        -8.1962753660        4.2136024043       -6.5101235014
 H        -9.6865742968        3.3610735823       -6.7301133553
 H        -8.5036833826        0.1723337273       -3.4755666931
 H        -9.6802765775        1.0711286778       -2.5403767929
 H        -8.6014662946       -1.0507443807       -1.3163074904
 H        -9.1761023961        0.3728307939       -0.5471652186
 H        -4.9799220823        1.8630187501        1.0758713268
 H        -5.3306098547        2.2328211515        2.7810871037
 H        -6.5705364707        3.3735493111        0.3509500095
 H        -5.2850968761        4.1457864412        1.1931065740
 H        -9.0189415068        5.5597853761       -1.4444590974
 H       -10.0244009078        6.4295344012       -0.4945210697
 H       -10.3344482464        3.5627075012       -1.3709719583
 H       -11.0225968444        4.8773083771       -2.1084686215
 H       -13.6479310189        3.2957645105        3.3937584990
 H       -13.3539215582        4.6125861895        2.2830149585
 H       -12.3070919138        5.6353831872        4.0404714853
 H       -10.9551661914        4.9658121625        3.2536536255
 H       -13.0776749282        1.1307867211        7.8197927980
 H       -11.7528359619        0.9555900969        6.6368151696
 H       -13.2599448960        0.2048372373        6.2875176179
 H       -11.3932757362        3.0589403384        7.6054655291
 H       -12.7678209461        3.7538371949        8.3654074468
 H       -11.6371410000        4.8482890302        7.6727146518
 H       -14.4601555202        4.7086344777        5.1054863508
 H       -13.6359579827        5.8429340604        6.2898116371
 H       -14.7122980246        4.6028139696        6.8570433192
 H       -14.5054913903        3.2453503738       -0.6662030096
 H       -14.4371308653        4.3124389649        0.6573217149
 H       -14.6420442577        2.5454500629        0.8961013967
 H       -12.8576067746        1.0242298690       -0.2758660651
 H       -11.1448246070        1.4696660616       -0.0451637421
 H       -12.0585718082        2.0295698681       -1.5349962612
 H        -8.8217601848        6.0840157914        3.4184951505
 H        -8.5908226320        7.4922903026        2.3750773850
 H        -7.2485056855        6.6447448145        3.2148173236
 H        -6.0044805268        6.6079157413        0.9713124306
 H        -7.2351035102        7.0913894674       -0.0311108000
 H        -6.4068504790        5.5734581924       -0.3418470595
 H        -7.5073720604       -2.3508743243        0.7864712024
 H        -8.6470447403       -1.0315175848        1.1656545563
 H        -7.5221889835       -1.6559413548        2.3311828037
 H        -4.9425465444       -0.7044151104        2.0782866194
 H        -4.5296280706        0.0217655451        0.5533816107
 H        -5.0939545781       -1.8034690055        0.7705920605
 H        -7.0489309084        1.9711357772       -6.1037538554
 H        -8.0877005290        0.8321390565       -5.2738493870
 H        -6.4850422666        1.1158755639       -4.7321650485
 H        -6.7023293583        4.3578036689       -3.1566477030
 H        -6.7389005565        4.4123544396       -4.9827722256
 H        -5.6214772497        3.3874693620       -4.1599366584
 H        -8.9203673726        7.1579126825       -7.5451779630
 H        -7.5042863750        7.4558079271       -6.5410768094
 H        -8.4674761624        8.8054641146       -7.2376196078
 H        -8.9839147913        8.4562525723       -3.4462119931
 H        -8.4111099643        9.6524944110       -4.6924600954
 H        -7.4708375764        8.3028197001       -4.3745362012
 Na       -9.3395623140        2.4982786180        3.5251863127
