117

 C       -11.5131741905        8.7731309152       -4.6892679381
 C       -10.6180387003        8.3391218723       -5.8414136659
 O       -10.9706307897        8.3940543117       -6.9880108719
 C        -9.2388284377        7.6084237885       -5.5745879857
 C        -9.5736070543        6.1791589230       -4.9826460650
 O        -9.2384552415        5.8488399912       -3.8655330985
 C       -10.2271353461        5.2080491354       -5.8996547000
 C        -9.3255582612        3.9202917696       -5.9667922716
 C        -9.1353818354        3.2670924790       -4.6151826214
 O       -10.1533726083        3.1027028136       -3.9536904751
 C        -7.7907692432        2.7153349359       -4.1464032733
 C        -8.0904720446        2.1933727775       -2.6731209776
 O        -7.8363373936        2.8810518664       -1.7237498246
 C        -8.7129784691        0.7839222099       -2.4694869792
 C        -8.5544191773        0.4689369989       -0.9711036025
 C        -7.1018162316        0.1691978536       -0.5932785722
 O        -6.1870546236        0.3027991442       -1.3870028416
 C        -6.5518000154       -0.3177561304        0.9661383360
 C        -6.8016164772        0.9875030847        1.8516945017
 O        -7.9333061287        1.0820796846        2.3928772711
 C        -5.7505410712        2.0480604163        1.9959844088
 C        -6.1532563452        3.3463105639        1.2439219528
 C        -6.9910130329        4.2357238730        2.1462825379
 O        -7.3572903822        3.9181803149        3.2550770847
 C        -7.7102037397        5.5480384173        1.5069969566
 C        -9.1252655740        5.1065659991        0.9882196435
 O        -9.7971329856        4.2332892736        1.5446139813
 C        -9.7004264395        5.7507600824       -0.2015027839
 C       -10.6967117588        4.7503935844       -0.8747219661
 C       -12.0646194044        4.6143762711       -0.1211552203
 O       -12.6963711028        5.5886625871        0.2051502111
 C       -12.5064563321        3.2387808609        0.3128078096
 C       -12.2683855996        3.1083689952        1.8376004768
 O       -11.5698739509        2.2323619033        2.2487084074
 C       -12.9107419587        4.0999468922        2.7987348948
 C       -11.9317234612        4.6588354721        3.8678494365
 C       -11.6945045540        3.8081950612        5.0848821578
 O       -10.6481070173        3.1951584825        5.2049969217
 C       -12.7531446850        3.8807169964        6.2614270691
 C       -13.4276390065        2.4364869905        5.9891192037
 O       -14.3606166278        2.2938271934        5.2224730032
 C       -12.8500392263        1.1021856776        6.4769314053
 C       -11.9451108476        3.7602738952        7.6060476822
 C       -13.7066045083        5.0612835282        6.2258012587
 C       -14.0730835753        3.1152335591        0.0415427496
 C       -11.7112425521        2.1038253759       -0.3905278165
 C        -8.1146337965        6.5947361235        2.5991470688
 C        -6.8300606129        6.1500805490        0.4176490274
 C        -7.3911287947       -1.4566068885        1.5835963670
 C        -5.1351039353       -0.6989350749        0.7300574484
 C        -7.4728702337        1.4800073472       -5.0986756153
 C        -6.5847280881        3.7010328324       -4.0948118915
 C        -8.4011914880        7.3233282696       -6.8904506077
 C        -8.2025904377        8.3303772263       -4.5712948438
 H       -10.9199494020        8.7699361423       -3.7731103541
 H       -12.3391998760        8.0638849940       -4.5858547433
 H       -11.9815165769        9.7692646297       -4.7694968017
 H       -10.3662205829        5.6383261860       -6.8667932227
 H       -11.1387754892        4.9323242928       -5.5389330648
 H        -8.4530420877        4.1081545344       -6.5039047888
 H        -9.8256765805        3.1536342681       -6.5380731902
 H        -8.1321121551        0.0094917045       -2.9851753803
 H        -9.7504251101        0.8650450561       -2.8296947465
 H        -9.2858962666       -0.2913335768       -0.6037415460
 H        -8.8241794412        1.4106401888       -0.4747238045
 H        -4.7869107985        1.8620597458        1.5831634031
 H        -5.6222894109        2.4512231603        3.0391267137
 H        -6.8355577489        3.1411250445        0.3630677565
 H        -5.2377354539        3.9026079503        0.7677640480
 H        -8.9670122791        6.0041559173       -0.9871286527
 H       -10.3126480241        6.6784305247       -0.1891294921
 H       -10.1588588838        3.8553214537       -1.1219676493
 H       -11.0712780075        5.1116330985       -1.8406730050
 H       -13.7832366633        3.6497987642        3.2863841737
 H       -13.3521639652        4.8885220278        2.2281573187
 H       -12.3732231106        5.6424851834        4.0442231910
 H       -10.9810099676        4.9099253407        3.4186749882
 H       -12.2018381775        1.1660838516        7.4262725276
 H       -12.2200688403        0.7412058796        5.7128166905
 H       -13.6209417301        0.3552908373        6.5931225171
 H       -11.0764370124        3.1274944912        7.2896938900
 H       -12.5025999997        3.2495724773        8.4237924181
 H       -11.6238802554        4.7277212048        7.9690397258
 H       -14.3224033389        4.9679639486        5.2990949253
 H       -13.1775601177        5.9802127002        6.1481700982
 H       -14.4152653242        5.0752725638        7.0011312437
 H       -14.2577223727        2.9012812857       -1.0236914826
 H       -14.6694045378        4.0477559929        0.3488155832
 H       -14.4438721895        2.2150057776        0.4948656162
 H       -11.9752012316        1.1592725660        0.0384938835
 H       -10.6703672143        2.2715491737       -0.2260423282
 H       -11.9042829079        2.2613646382       -1.4383981923
 H        -8.6445983414        6.2173722016        3.4658798513
 H        -8.7849173594        7.2913335637        2.0705306608
 H        -7.2610428784        7.1766795339        2.9201888445
 H        -5.8154471182        6.3472080682        0.7473777911
 H        -7.2096805142        7.1655293136        0.2210401770
 H        -6.7539920284        5.6291318565       -0.5636863309
 H        -7.4859426139       -2.4619295794        1.0699264928
 H        -8.3877957046       -1.0166835133        1.7406111331
 H        -6.9716472901       -1.6476091363        2.6045900549
 H        -4.5780658609       -0.7647190910        1.6139902522
 H        -4.5650546762        0.0481953937        0.0784581048
 H        -5.2830731969       -1.6312939412        0.2177676293
 H        -7.2633124214        1.8906962362       -6.0891000175
 H        -8.3966114737        0.8045265936       -5.0422509500
 H        -6.5919577257        0.8775041091       -4.7914796937
 H        -6.6267659824        4.2937671170       -3.2130121634
 H        -6.5255640902        4.2229734275       -5.0691079009
 H        -5.6626650206        3.1093784526       -4.0266030459
 H        -9.1230575892        7.1762366203       -7.6806160412
 H        -7.7033681788        6.4849966845       -6.7965771473
 H        -7.7979439222        8.2131515668       -7.1328117119
 H        -8.5342923268        8.6241039297       -3.5730343697
 H        -7.8093815192        9.2622262775       -5.0444526916
 H        -7.3513857137        7.6193373348       -4.5192508822
 Na       -9.2608718842        2.8422307274        3.2113809797
