117

 C       -11.1552942466        8.3178792341       -4.8181293672
 C       -10.3032421213        8.0192748786       -6.0690166413
 O       -10.7164256056        8.1843668112       -7.2092626320
 C        -8.9509031586        7.2486234890       -5.8268553269
 C        -9.2971658646        5.8466737045       -5.1396904880
 O        -8.9652105319        5.5991607568       -3.9883589073
 C       -10.2662870401        4.8257380045       -5.8228137631
 C        -9.7463814025        3.3855832647       -5.7468761818
 C        -9.5733251423        2.8674487106       -4.2930618341
 O       -10.5348135360        2.4786695648       -3.6602036254
 C        -8.0802146632        2.4846563831       -3.8764414531
 C        -8.1735114154        2.1046605670       -2.3759368108
 O        -7.8449523912        2.8967116304       -1.5658372015
 C        -8.8877413348        0.7475909859       -2.0168274802
 C        -8.7018574070        0.2920069327       -0.5484062820
 C        -7.1388265858       -0.0041705608       -0.3376667909
 O        -6.3586685738       -0.0160709753       -1.2317886407
 C        -6.4889932662       -0.3346686517        1.1701093020
 C        -6.8317883417        0.9255690036        1.9992073883
 O        -8.0250050336        1.0836085350        2.4028568142
 C        -5.7572533130        2.0911305228        2.1185232335
 C        -6.2367993935        3.2570716221        1.2686833586
 C        -7.1317123514        4.3992839217        1.9923188079
 O        -7.3665453774        4.2852235277        3.1546180247
 C        -7.6118687369        5.7010670649        1.1724250470
 C        -9.1128908654        5.4752626973        0.7073224812
 O        -9.8061038012        4.6913236593        1.3942773392
 C        -9.6493211398        6.1717932045       -0.6007554068
 C       -10.7951704025        5.3289350856       -1.1374876488
 C       -11.8767960489        5.0333575488       -0.0152546340
 O       -12.3963551932        5.9569351295        0.5518502657
 C       -12.4600877565        3.6291836639        0.2976946288
 C       -12.2674378224        3.3980866561        1.8856883741
 O       -11.6387408567        2.4722378221        2.2986980175
 C       -13.0588132847        4.2925560192        2.8747192115
 C       -12.0915542981        4.9507232069        3.9750923193
 C       -11.6994144734        3.9817833390        5.1038619486
 O       -10.6834938669        3.3112516364        4.9669986333
 C       -12.5850879715        3.7471114312        6.3148766650
 C       -13.5094922829        2.5527769585        5.8677857680
 O       -14.5850212878        2.8983561908        5.4095965069
 C       -13.1503222601        1.0839913426        5.9840085851
 C       -11.7445970813        3.2486708733        7.5538410677
 C       -13.4261617997        4.9748866813        6.6022729585
 C       -14.0127101794        3.5723941698       -0.0006407772
 C       -11.7665459911        2.4417965694       -0.4167163569
 C        -7.5553377150        6.8120440701        2.1259276183
 C        -6.6279437899        5.9642862705        0.0171030334
 C        -7.0693580335       -1.6401119220        1.7826788633
 C        -4.9384423552       -0.5563656149        0.9468039129
 C        -7.7335993313        1.2537362296       -4.8489289795
 C        -7.0723515036        3.6492762865       -4.0488112030
 C        -8.3294822809        7.2130541518       -7.2494467983
 C        -8.0541198211        7.9904565998       -4.8189187319
 H       -12.2049273469        8.3675687839       -4.9074628867
 H       -10.8049246127        9.2547194364       -4.4394372438
 H       -10.8134952053        7.7165398876       -3.9847282620
 H       -10.4509672909        5.1174119929       -6.9327424766
 H       -11.2897536373        4.9280237799       -5.3434315855
 H        -8.7500289830        3.3768386258       -6.2316972438
 H       -10.4518104436        2.6969254333       -6.2919514304
 H        -8.4875505407       -0.0637765159       -2.6291569384
 H        -9.9556891158        1.0063971474       -2.1353662037
 H        -9.2624065986       -0.6797475935       -0.3196431115
 H        -9.1450355323        1.0220476569        0.0601003320
 H        -4.7952356764        1.9043970335        1.7665379688
 H        -5.6658733365        2.4770797908        3.1562102435
 H        -6.8671455631        2.9431216822        0.4776054842
 H        -5.4264118173        3.7334823740        0.7902874552
 H        -8.9598583520        6.0834129484       -1.4287278878
 H        -9.9861427971        7.1656183317       -0.4692727375
 H       -10.4129593852        4.3814176474       -1.5091897343
 H       -11.3481989396        5.8972707906       -1.9138166145
 H       -13.7419896526        3.5892214353        3.3878639609
 H       -13.7124570898        5.0378330382        2.3811919064
 H       -12.6864862568        5.8098696497        4.3291856204
 H       -11.2232344277        5.1657451631        3.3547050794
 H       -13.3570112443        0.7421493802        7.0613871157
 H       -12.1731646461        0.7842599077        5.7519308280
 H       -13.8597589507        0.5335277250        5.3879743217
 H       -10.9653213676        2.6123250181        7.1554335637
 H       -12.3295556718        2.6929489198        8.2746321994
 H       -11.2243065923        3.9934392628        8.0595430669
 H       -14.0803503020        5.1700319679        5.7208927655
 H       -12.8744393045        5.8823824570        6.6738266376
 H       -14.0184044156        4.9799219019        7.4854043247
 H       -14.1336710311        3.6369687372       -1.0866184429
 H       -14.4852200995        4.5093265089        0.4255502484
 H       -14.4955011010        2.7435145904        0.4526996903
 H       -12.3408426282        1.5180098842       -0.3042791044
 H       -10.8293846716        2.3440765221        0.0796993357
 H       -11.6732166975        2.5996728254       -1.4878666654
 H        -8.0547836864        6.5062087551        3.0456850963
 H        -8.0257660807        7.7270121498        1.7543873553
 H        -6.5293395545        7.0488330733        2.3254525773
 H        -5.6785915977        6.1662783932        0.4850464160
 H        -6.9358947648        6.8083502996       -0.5644822202
 H        -6.5067311971        5.0979826609       -0.6410410623
 H        -6.6961604945       -2.5767497054        1.2629692025
 H        -8.1720599497       -1.5453232265        1.6842220585
 H        -6.8368282769       -1.7442050385        2.8706342125
 H        -4.5802837981       -0.3598410022        1.9230486431
 H        -4.4404720826        0.0221260073        0.0659249004
 H        -4.7436105323       -1.6226932019        0.7974494499
 H        -7.2541827099        1.5791004258       -5.6977310940
 H        -8.6415760537        0.7692271762       -5.2276790980
 H        -7.1571052244        0.5519400424       -4.3504448387
 H        -7.2271746424        4.4565954952       -3.3608763638
 H        -7.3032854072        4.1507593269       -5.0202129255
 H        -6.0702636127        3.2323584852       -4.0166494299
 H        -8.9026926612        6.4507092983       -7.7415436358
 H        -7.2528763124        6.9858181332       -7.2656096466
 H        -8.5713442554        8.1675876101       -7.7142637631
 H        -8.6695141785        8.3045486052       -3.9503287551
 H        -7.8173344025        8.9305231695       -5.3159793156
 H        -7.2499573211        7.3560898082       -4.4242339292
 Na       -9.3638486971        2.8546447053        3.0433895655
