117

 C       -11.1029706448        8.6253465258       -5.1089230054
 C       -10.3353867011        7.8588808434       -6.2064542589
 O       -10.7259193862        8.0434459710       -7.3106932761
 C        -9.0519069006        7.0052933437       -5.8625170712
 C        -9.4806072147        5.7639549186       -4.9835429972
 O        -9.3582720255        5.8104381829       -3.7758536822
 C       -10.2613736727        4.5859002175       -5.7000574289
 C        -9.4217584055        3.3170913613       -5.6491749700
 C        -9.3673704505        2.7902733618       -4.1985087644
 O       -10.3307337990        3.0518260198       -3.5172298430
 C        -8.1166882111        2.0456784829       -3.7334545558
 C        -8.3263145983        1.5902405238       -2.2729350663
 O        -8.0544478562        2.4213158502       -1.3690270444
 C        -8.9683095641        0.3023765417       -1.9184629525
 C        -8.5516415509       -0.1479940617       -0.4958989667
 C        -7.0626742183       -0.0699231739       -0.1818807500
 O        -6.2430370649        0.1002606127       -1.0830428767
 C        -6.6409369832       -0.1436669907        1.3656902172
 C        -7.0146550998        1.1802877924        2.0604000629
 O        -8.1947095325        1.3993207611        2.2772881200
 C        -5.9577522242        2.1910239404        2.4395487249
 C        -5.9963950054        3.3601049245        1.4743755884
 C        -6.9195940434        4.6198226985        1.8876589909
 O        -7.4479496235        4.6237814755        2.9762909745
 C        -7.3296957354        5.5884413650        0.7577752064
 C        -8.8774997499        5.2478396966        0.3701513065
 O        -9.5132249171        4.4463520440        0.9909629350
 C        -9.5558521577        6.0120504297       -0.8477590852
 C       -10.8899708223        5.3150079946       -1.1976624584
 C       -11.8473823656        5.2616623516        0.0376616047
 O       -11.9929105662        6.2521557731        0.7373466091
 C       -12.7093224951        3.9372543998        0.4153414845
 C       -12.2841371859        3.6371411557        1.8522272058
 O       -11.4596971057        2.7253046879        2.1299989830
 C       -13.0195878708        4.5151583045        2.9031695418
 C       -12.0052719149        4.9197851603        4.0467252236
 C       -11.5637938158        3.8089522726        5.0819789792
 O       -10.4987163896        3.2048751128        5.1098100873
 C       -12.4823398136        3.5787181964        6.3251244229
 C       -13.6628406525        2.5782023056        5.6929099426
 O       -14.7009125934        3.0456805734        5.3288646216
 C       -13.3902247327        1.0866100462        5.6853321716
 C       -11.7693656465        3.0733727913        7.5207964075
 C       -13.1574569659        4.8717990467        6.7965985344
 C       -14.2017930185        4.3393367153        0.3205333854
 C       -12.3813893841        2.8130075045       -0.5478436461
 C        -7.4290393354        7.0431168645        1.4030786231
 C        -6.4027968933        5.6295850199       -0.4736082751
 C        -7.3514113743       -1.3600535817        1.9836835270
 C        -5.1023026030       -0.3804746667        1.4045692613
 C        -7.9167497024        0.8733708749       -4.7645407803
 C        -7.0007491429        3.2062297184       -3.8635742696
 C        -8.4349213663        6.5810554155       -7.2950238418
 C        -8.0923055852        7.8806669717       -5.0499118662
 H       -11.5245381923        9.5366231531       -5.5416365155
 H       -10.6099987545        8.9397474625       -4.2077644111
 H       -11.9421120184        8.0510288829       -4.8277476689
 H       -10.5790725612        4.8082958157       -6.7542160177
 H       -11.2031635412        4.3923990437       -5.0501948818
 H        -8.4165783417        3.4055276033       -6.0838181817
 H        -9.9822079155        2.5434102261       -6.2410743568
 H        -8.7481504160       -0.4772543811       -2.6466343118
 H       -10.0748710161        0.4047335847       -1.8315916046
 H        -8.9803892116       -1.1118661554       -0.3537630350
 H        -9.1569539783        0.4481136650        0.2344349666
 H        -4.9279787198        1.7138750218        2.4374566128
 H        -6.2262045793        2.3949719721        3.4493107116
 H        -6.3472148887        2.9470409175        0.6067988142
 H        -5.0015406817        3.7628135600        1.3235404793
 H        -9.0314175065        5.8414209221       -1.7371349805
 H        -9.6580647934        7.0538026724       -0.6001212009
 H       -10.6754734760        4.2853500300       -1.5663105897
 H       -11.5260645142        5.7999817177       -1.9596094139
 H       -13.8928273072        3.9136254216        3.2944650403
 H       -13.3689126246        5.3834848780        2.3364610407
 H       -12.4144685167        5.7868592556        4.5577959005
 H       -11.0965017573        5.2703434151        3.5144340401
 H       -13.2868361323        0.7953828018        6.6750974827
 H       -12.3914943343        0.8774093591        5.2229519073
 H       -14.1592473014        0.4410784856        5.2229674761
 H       -11.2786003477        2.1739083831        7.4078762882
 H       -12.3791806782        2.9144678036        8.3521454105
 H       -11.1576986609        3.8999598745        7.8305497604
 H       -13.9472792323        5.2398857141        6.2178432130
 H       -12.4094062448        5.6530098202        6.9263187248
 H       -13.5832714602        4.8532231954        7.7849574050
 H       -14.4318194929        4.4208110554       -0.7581409845
 H       -14.4458688509        5.2941922346        0.7739263457
 H       -14.8387252291        3.5188418025        0.7915621590
 H       -13.0742255060        2.0237788679       -0.4025879401
 H       -11.3772163160        2.4024290554       -0.3660196935
 H       -12.4935393488        3.0951143298       -1.5932041349
 H        -8.2085564364        7.0624068180        2.1373720822
 H        -7.5973063756        7.7342395334        0.6099494228
 H        -6.5422592309        7.2780317621        1.9955671093
 H        -5.5203563846        6.1005300989       -0.1365228323
 H        -6.8196803882        6.2658937490       -1.2678692586
 H        -6.2383462704        4.6121044463       -0.8333558593
 H        -6.9441143633       -2.2686015878        1.4653376894
 H        -8.4948285077       -1.3604490862        1.9257973504
 H        -7.0136570330       -1.4149178186        3.0574943702
 H        -4.7724451166       -0.2812546182        2.4797328104
 H        -4.6542153261        0.3208856013        0.7926415288
 H        -4.8782596722       -1.4675435459        1.2539780006
 H        -7.4838697799        1.2801036719       -5.6628065299
 H        -8.7412449036        0.2925146381       -4.9191564105
 H        -7.1582707349        0.1966688245       -4.4211642716
 H        -7.3782951193        4.1411955325       -3.4235465189
 H        -6.6792184603        3.3442719760       -4.8868466413
 H        -6.0844419454        2.8882974672       -3.2820466153
 H        -9.1106176750        6.4073813055       -8.1395288995
 H        -7.8188209413        5.7358065424       -7.0745344836
 H        -7.7682819280        7.4218646716       -7.4882958350
 H        -8.4033295822        7.6719945060       -4.0556210052
 H        -7.9971297188        8.9415022538       -5.3499424499
 H        -7.0863588066        7.5356610188       -5.2529245406
 Na       -9.3114716035        3.0396513825        3.1992373922
