117

 C       -10.9775060912        8.5625478618       -5.1651622854
 C       -10.3150497105        7.8944473818       -6.3251869909
 O       -10.8204171163        7.8319854702       -7.4475181149
 C        -9.0687767375        7.0822901053       -5.9802316969
 C        -9.7038475074        5.8795240369       -5.1317912367
 O        -9.5925596909        5.9508922168       -3.9194568542
 C       -10.3688787066        4.7027392248       -5.7484206462
 C        -9.5429691879        3.3959940143       -5.4928892884
 C        -9.4165290480        2.8653899431       -4.0415033883
 O       -10.3276171556        2.7878389290       -3.2286437547
 C        -8.0603199484        2.0133487516       -3.6516666693
 C        -8.2660119552        1.7212512875       -2.1362548410
 O        -8.0171460331        2.5123945303       -1.2706247039
 C        -8.7737801234        0.2517663834       -1.8500001721
 C        -8.5219928762       -0.2461014692       -0.3732385344
 C        -7.0854760662       -0.1866563988       -0.0970513080
 O        -6.2684617798        0.2404344364       -0.8706997104
 C        -6.6268342778       -0.2734231099        1.4762199794
 C        -7.0711657303        1.1267103971        1.9080594950
 O        -8.2995140883        1.2986513206        1.9826840666
 C        -6.1674726148        2.2686594882        2.4897605225
 C        -5.9789349700        3.4643448411        1.4908483200
 C        -6.8640643847        4.6324030090        1.8572146440
 O        -7.4570088489        4.7902022677        2.9423569890
 C        -7.3446971067        5.5299685136        0.6583767071
 C        -8.8810149563        5.1739809994        0.1825812027
 O        -9.4474415757        4.3573861741        0.8946977919
 C        -9.5213429780        5.9752943952       -0.9022830572
 C       -10.8879484052        5.3133211358       -1.2394856388
 C       -11.7963523209        5.3047590234        0.0174640722
 O       -11.9067499086        6.2876156999        0.6948138133
 C       -12.7668087139        4.0711841706        0.4577659419
 C       -12.1890212303        3.7667545918        1.8973846493
 O       -11.4515093560        2.8460460591        2.0345978220
 C       -12.7670800605        4.7272826211        3.0825365122
 C       -11.7021994045        4.9668978750        4.1518551985
 C       -11.5189973808        3.8600341149        5.1566823339
 O       -10.5857916246        3.0571863164        5.0752747907
 C       -12.5508469857        3.5718548205        6.3727803251
 C       -13.7075606110        2.5909782768        5.7479970433
 O       -14.7363567494        3.1141095175        5.3582517605
 C       -13.4097201666        1.1114895087        5.7166733214
 C       -11.7647614961        2.7988276507        7.4911242048
 C       -13.3091112407        4.8459152648        6.7439485585
 C       -14.2538670431        4.6152775951        0.4393451408
 C       -12.6648357925        2.8372346486       -0.4608309915
 C        -7.3011919636        7.0347743074        1.1215920789
 C        -6.3804962480        5.4628805497       -0.5868534850
 C        -7.3725539964       -1.2761594991        2.3253589840
 C        -5.1352412579       -0.6062014626        1.4370790667
 C        -7.9116530668        0.8009771213       -4.5784055675
 C        -6.7710620449        2.7733318062       -3.7385791388
 C        -8.3532745438        6.5017106210       -7.3145201235
 C        -7.9979893970        7.7938943685       -5.1388929880
 H       -11.1320186575        9.6271340900       -5.2772551881
 H       -10.3408508732        8.5373690044       -4.2852713821
 H       -11.9827558287        8.1426428168       -4.9288858445
 H       -10.3297350099        4.8126301162       -6.8243610134
 H       -11.3751991684        4.6881466266       -5.4471332824
 H        -8.4782345335        3.5104854886       -5.8231928665
 H        -9.9820497709        2.6141802098       -6.1481065534
 H        -8.2748705123       -0.4068563618       -2.5769360746
 H        -9.8237577929        0.0227853245       -2.0185263979
 H        -8.9831647276       -1.2526082753       -0.1912633933
 H        -9.1199890029        0.3414270791        0.2633378683
 H        -5.2413956952        1.7916631615        2.6929267636
 H        -6.6008063643        2.6493238644        3.4689110551
 H        -6.3168401492        3.2510257269        0.4019825834
 H        -4.9134345836        3.8001053527        1.5524115578
 H        -8.9392201871        5.8688163280       -1.8647623414
 H        -9.6117627423        7.0201843132       -0.5137534779
 H       -10.8091652993        4.2981826309       -1.5873143900
 H       -11.4690558267        5.8272291645       -2.0120851251
 H       -13.5701490849        4.1434077102        3.4916369246
 H       -13.1348330682        5.6519493341        2.6045956718
 H       -11.8918866785        5.9369701047        4.6023572455
 H       -10.7628214639        5.0974493290        3.6462343671
 H       -13.9988776894        0.5705130257        6.5426952501
 H       -12.4134010425        0.7913471749        5.7464318370
 H       -13.8897608328        0.7432183467        4.8181229462
 H       -11.1748912478        1.9630858096        7.0432814764
 H       -12.3630360600        2.2552710800        8.2721344079
 H       -11.1030593564        3.4651879038        8.0157324836
 H       -13.9771993532        5.2899827346        5.9510845910
 H       -12.6693007745        5.6520226274        7.0696022778
 H       -14.0187957755        4.7485203352        7.5600934348
 H       -14.7028152510        4.4220778746       -0.5142565898
 H       -14.2118762614        5.7000292381        0.6069595136
 H       -14.8501414575        4.1601904967        1.1511215130
 H       -13.3749864027        2.0024718047       -0.2049930830
 H       -11.6734056895        2.3975761099       -0.4568887624
 H       -12.7855560752        3.1754455624       -1.4981224871
 H        -7.9773555630        7.1379895780        1.9687334590
 H        -7.4977834294        7.7396036460        0.2961403906
 H        -6.3386793110        7.2426460019        1.5573566258
 H        -5.3472887764        5.3510462386       -0.2193503206
 H        -6.4559816401        6.3627228110       -1.1578095262
 H        -6.7243789008        4.6305716334       -1.2116879347
 H        -7.2437658864       -2.2927294896        2.0591836422
 H        -8.3828297869       -1.0079093961        2.2361538369
 H        -7.1048513803       -1.1244796717        3.3241644311
 H        -4.8113227937       -0.7227528808        2.4246881942
 H        -4.5007059011        0.1834260848        0.9056299422
 H        -5.1195030160       -1.5918388484        1.0151676064
 H        -7.3693508217        1.0226664157       -5.4871454821
 H        -8.9869165429        0.4498763050       -4.7257137891
 H        -7.4169134635       -0.0726831239       -4.2224106985
 H        -6.8818260249        3.6833290715       -3.1704366309
 H        -6.5256297321        2.9697985442       -4.8062008687
 H        -5.9296877803        2.2521540946       -3.3594450249
 H        -9.0044047033        5.7540949120       -7.7245943575
 H        -7.3993939503        6.0619032934       -6.9658987144
 H        -8.1960686540        7.2400648869       -8.0926473021
 H        -8.4450859356        8.2556207776       -4.2426772888
 H        -7.4492358679        8.3997571989       -5.8244670397
 H        -7.1864336711        7.1088124118       -4.8876846168
 Na       -9.2941045157        3.3175920105        2.9106589870
