117

 C       -10.9946598489        8.6163888246       -5.2497711277
 C       -10.3092451201        7.8479910820       -6.3715351800
 O       -10.8226893671        7.7729595941       -7.4337962793
 C        -9.0090658182        6.9329720504       -6.0285179220
 C        -9.6376705475        5.8499865259       -5.1155228027
 O        -9.7374464287        6.0445209092       -3.9329395289
 C       -10.4121521096        4.6791534586       -5.7859754426
 C        -9.5282827480        3.4151249963       -5.4316154206
 C        -9.3708206700        2.8172424441       -3.9584752568
 O       -10.3468066661        2.7599864884       -3.2345595954
 C        -8.1021927211        2.0174238486       -3.6102295546
 C        -8.2072608102        1.5770835894       -2.0602217447
 O        -8.0269017926        2.4688144086       -1.2183669693
 C        -8.7382194315        0.2204987135       -1.8126199853
 C        -8.5638548675       -0.2876743663       -0.3591981343
 C        -7.1034084791       -0.1176092018       -0.0155327493
 O        -6.2257676153        0.1822954640       -0.8144848610
 C        -6.6922654084       -0.2540397799        1.5256134789
 C        -7.1071609631        1.1639398049        2.0685232772
 O        -8.3221659671        1.4931111204        2.0067316195
 C        -6.1288883321        2.2453972082        2.6088910017
 C        -6.0378378077        3.3360455203        1.5028017443
 C        -6.9315187427        4.5840296271        1.7770358692
 O        -7.4202185892        4.8067610068        2.8201423001
 C        -7.2176142190        5.5641627521        0.6022769781
 C        -8.8030571614        5.1925076706        0.2521867749
 O        -9.4625874084        4.3463701442        0.7973489405
 C        -9.5434625262        5.8831000249       -0.8749813412
 C       -10.8864889789        5.2067135075       -1.2449090948
 C       -11.8677939597        5.3413210833       -0.0088882444
 O       -11.7971056183        6.3742676164        0.6480294790
 C       -12.8165107540        4.2290308547        0.4747972842
 C       -12.2987368373        3.8307152251        1.8932609000
 O       -11.4993217983        2.9213971984        2.0050758347
 C       -12.6237808308        4.7452345317        3.0782156929
 C       -11.5814235557        5.0510664909        4.2432857641
 C       -11.4376115406        3.8342517585        5.1510115495
 O       -10.5912824470        2.9673448597        4.8778342946
 C       -12.5072774380        3.5486995774        6.3054465254
 C       -13.6379255702        2.5720561219        5.6740465896
 O       -14.6707636192        3.0894520351        5.3804218115
 C       -13.4530147984        1.1041368324        5.7043231248
 C       -11.9940200033        2.8343858758        7.4820304324
 C       -13.1926157461        4.7792887379        6.8212807950
 C       -14.2461667298        4.7635477680        0.5220838951
 C       -12.7013022482        2.9448146149       -0.3293972558
 C        -7.3175078856        7.0725853941        1.0535313295
 C        -6.4281072511        5.3837772758       -0.7480191571
 C        -7.4106339860       -1.3516267197        2.3714850209
 C        -5.1379977962       -0.5641935073        1.5678023834
 C        -7.9914668532        0.7644818694       -4.5443097534
 C        -6.6446743675        2.7502241157       -3.7163091217
 C        -8.3621541048        6.4336576179       -7.3929630409
 C        -7.9589450092        7.8477261819       -5.2440520040
 H       -10.8981344094        9.7275475014       -5.4720305188
 H       -10.5653563068        8.5925981416       -4.2377959334
 H       -12.0730919801        8.4139712341       -5.2382349389
 H       -10.5496960851        4.6954291812       -6.8299073324
 H       -11.3383203994        4.6870791187       -5.3076952956
 H        -8.5899189349        3.4534889716       -5.8657710072
 H       -10.0074244981        2.5902902701       -5.9355088691
 H        -8.3219965817       -0.4752729092       -2.5495904011
 H        -9.8392271144        0.2169637326       -2.1141344744
 H        -8.8638000744       -1.3903892996       -0.2968622546
 H        -9.3049457239        0.1633133535        0.2824438857
 H        -5.1562753794        1.7680606919        2.7691954800
 H        -6.4574807979        2.7643878612        3.5418515382
 H        -6.2469538307        3.0560063818        0.4597668646
 H        -4.9290344937        3.6561330843        1.6594679423
 H        -8.9858495028        5.8733787103       -1.8413372195
 H        -9.8443638899        6.9161550325       -0.5427001237
 H       -10.9257001255        4.1773790440       -1.5548001757
 H       -11.2488691734        5.7577421426       -2.0948977581
 H       -13.4946036101        4.2914568614        3.5532758694
 H       -12.8770276757        5.6705487218        2.5841958051
 H       -12.0104835228        5.9674858385        4.7090112682
 H       -10.5949934305        5.3795887635        3.8729185412
 H       -14.1392966220        0.7908743881        6.4706082761
 H       -12.4748690330        0.6927872171        5.9472079733
 H       -13.8338765877        0.5943165665        4.7871652612
 H       -11.4597823443        1.8734548855        7.2835148470
 H       -12.8956973279        2.4404415917        8.0479428980
 H       -11.4080196428        3.4345595732        8.2553535558
 H       -13.7746911800        5.3693015489        6.0903219770
 H       -12.5620659699        5.5146562973        7.3517379534
 H       -13.9704744464        4.5174307405        7.5308087611
 H       -14.6948545256        4.7131035344       -0.4364855896
 H       -14.1942567063        5.7917106007        0.8689768899
 H       -14.8793202608        4.1499347636        1.1379775876
 H       -13.2353288659        2.1213313152        0.1355410351
 H       -11.6387428965        2.6224735547       -0.3299120851
 H       -12.8960248366        3.0738013670       -1.4112561185
 H        -7.7750733810        6.9692402557        2.0345733537
 H        -7.8375096189        7.7601752430        0.3623901799
 H        -6.3001349603        7.4375564057        1.2924477541
 H        -5.4448533649        5.0457163511       -0.5575394558
 H        -6.3993723039        6.3678948420       -1.2569192071
 H        -7.0505321042        4.6968934124       -1.4054634674
 H        -7.2870825629       -2.3126579749        1.9697617037
 H        -8.4616333368       -1.1152562158        2.3945442741
 H        -7.0554907284       -1.3463324719        3.3345038008
 H        -4.8691185758       -0.6565057014        2.6015084726
 H        -4.5423073528        0.1939031321        1.1352071814
 H        -5.0581856889       -1.5675718610        1.0427162239
 H        -7.9707827722        1.0175586316       -5.6808799754
 H        -8.8085755212        0.0579700773       -4.2854775325
 H        -7.0494750805        0.1880103616       -4.4303876773
 H        -6.5102713876        3.4706098701       -2.9735912459
 H        -6.5358094920        3.1596731447       -4.7106964309
 H        -5.7917010160        2.0561961994       -3.6421397333
 H        -8.9804057564        5.6443436161       -7.7931562792
 H        -7.3224338963        6.1788705254       -7.2342774357
 H        -8.4681715483        7.2421421446       -8.1543233318
 H        -8.5290265383        8.5548990471       -4.7052249669
 H        -7.2721567391        8.2482455915       -6.0132216549
 H        -7.2734921353        7.3451643775       -4.5776711263
 Na       -9.3035588945        3.3683018224        2.8410530156
