117

 C       -10.9555008853        8.6917331754       -5.3331124218
 C       -10.3604378983        7.7913529986       -6.4069783345
 O       -10.7890126680        7.6855603189       -7.5459051760
 C        -9.0735921263        6.9379045639       -6.1258278123
 C        -9.6225424858        5.9085199775       -5.0971093744
 O        -9.7902760924        6.1948387723       -3.9087776093
 C       -10.2538416917        4.4856134517       -5.5830120004
 C        -9.4289704801        3.2434304781       -5.4732366396
 C        -9.3862332313        2.7540572347       -4.0159798250
 O       -10.3135933704        2.8213340629       -3.2593004521
 C        -8.0773370392        1.9882628877       -3.5905704644
 C        -8.2448248806        1.5244444136       -2.0842326416
 O        -8.0076889089        2.3287900322       -1.1869126381
 C        -8.8129438496        0.1426744552       -1.7928854624
 C        -8.5261282526       -0.3043702638       -0.3146162642
 C        -7.0771603617       -0.1087024888        0.1294160452
 O        -6.2358617182        0.0683771407       -0.7243864084
 C        -6.7300900918       -0.1425420892        1.6714495361
 C        -7.1555372165        1.1980876891        2.2440387007
 O        -8.3066764197        1.5123126570        2.1064552033
 C        -6.0596452182        2.2589652484        2.6414472174
 C        -5.9592044147        3.2972797270        1.4816915932
 C        -6.9985957866        4.5743214735        1.6263224714
 O        -7.3533203372        4.7899350025        2.7567667001
 C        -7.3949763015        5.5452344581        0.4889334246
 C        -8.8336352709        5.1547432383        0.1463744409
 O        -9.3714389582        4.3186391977        0.8542813675
 C        -9.5485071579        5.9332025424       -1.0355960078
 C       -10.8543462377        5.1848554434       -1.1920567053
 C       -11.8085911948        5.4371964522        0.0561006551
 O       -11.7364941317        6.5420280603        0.5929612816
 C       -12.7907778015        4.3081719943        0.5489186339
 C       -12.1918713712        4.0150102408        1.9452013737
 O       -11.5568546291        2.9589532215        2.0912352788
 C       -12.6190911071        4.9651754216        3.1464847230
 C       -11.5804065880        4.9826627958        4.2758577808
 C       -11.4386631896        3.6887380520        5.0603141463
 O       -10.5448352224        2.9163732252        4.7589856264
 C       -12.5046646284        3.5001372869        6.2759428808
 C       -13.6684297693        2.5797102542        5.6541247081
 O       -14.6868483911        3.0990521627        5.2390273847
 C       -13.4812493276        1.0609882486        5.6396764237
 C       -11.9515440527        2.7879709836        7.5717213614
 C       -13.0824046558        4.8544461349        6.7972259294
 C       -14.2777942344        4.8817301636        0.6116672367
 C       -12.8010365159        2.9620392266       -0.3475107995
 C        -7.2806681482        6.9694223459        0.9957201772
 C        -6.5068635160        5.3273911929       -0.7896432809
 C        -7.5113029699       -1.3335729961        2.2869825016
 C        -5.1807648838       -0.4248902495        1.7800564979
 C        -8.0870087724        0.7888430612       -4.5465917239
 C        -6.6940160003        2.8078838468       -3.7777714881
 C        -8.4321432682        6.3980309858       -7.3551583172
 C        -7.9462807558        7.8306650456       -5.3808223369
 H       -10.5857307962        9.7376063801       -5.4381339778
 H       -10.6857051365        8.4713497498       -4.2835687331
 H       -12.0369680511        8.7331382724       -5.4550451931
 H       -10.6646436550        4.5263736398       -6.5778114830
 H       -11.1122144779        4.3687257619       -4.8762345413
 H        -8.4545324836        3.2969468187       -5.8635800545
 H        -9.8787794084        2.4864650239       -6.0576269841
 H        -8.4019833493       -0.5969220047       -2.5071393915
 H        -9.8919190907        0.1047040955       -2.0920896491
 H        -8.8543251283       -1.3252768446       -0.2331983071
 H        -9.2717434555        0.2383775269        0.3706890599
 H        -5.0863351344        1.7153745650        2.8868446354
 H        -6.3618917338        2.8052826846        3.5101741599
 H        -6.3253333977        2.9273234005        0.5556901440
 H        -4.8756416898        3.4875938233        1.4513106024
 H        -9.0264597083        5.9032184247       -1.9678953117
 H        -9.8073178213        6.9460292519       -0.6998998443
 H       -10.7807021564        4.0902874325       -1.1987213276
 H       -11.3525659954        5.3719836982       -2.1428949059
 H       -13.6059914275        4.5621544860        3.4776854328
 H       -12.6622479454        5.9422044376        2.6858844586
 H       -11.8188104338        5.8713632927        4.8900947114
 H       -10.5712005644        5.2510862217        3.8449010313
 H       -14.0154347850        0.5783171787        6.3974820765
 H       -12.3828900884        0.8115661213        5.7520211211
 H       -13.8103184177        0.6017286383        4.7065418113
 H       -11.3507309312        1.8670205248        7.5210370236
 H       -12.8498610506        2.4463779395        8.1029285450
 H       -11.4474228607        3.4689050018        8.3150499755
 H       -13.5655898269        5.4816527138        6.1011124217
 H       -12.4314760924        5.5302364737        7.3727845785
 H       -13.9063021214        4.5929353087        7.4840663949
 H       -14.6202012293        5.0969275651       -0.4076303065
 H       -14.2538950834        5.7668093918        1.1869521527
 H       -15.0455543375        4.1251108065        0.9711755292
 H       -13.3372000932        2.1971137549        0.1647076631
 H       -11.7978001472        2.5234891698       -0.5294258261
 H       -13.1361682921        3.1613508247       -1.3588762643
 H        -7.4684876322        6.9868458115        2.0798823703
 H        -7.8774236287        7.6880081016        0.4316857005
 H        -6.1978738703        7.2099104132        0.8857733759
 H        -5.5172150364        5.1365865692       -0.3670753686
 H        -6.4699994987        6.2723665523       -1.3832952576
 H        -6.9044851265        4.5204373062       -1.4002651643
 H        -7.2788262827       -2.1751060813        1.6434998567
 H        -8.5870978062       -1.1962636842        2.3472066046
 H        -7.1102346281       -1.6058941716        3.3008618782
 H        -4.8167502964       -0.3523902293        2.8560395818
 H        -4.6954532836        0.3582866851        1.2568428505
 H        -4.9710805686       -1.3430278201        1.2405797057
 H        -8.2934130966        1.1842270479       -5.5663128053
 H        -8.8114466958        0.0414652540       -4.2853703151
 H        -7.0822979809        0.2699205331       -4.7512756532
 H        -6.5064162926        3.4485407932       -2.8992375373
 H        -6.7441521286        3.3766353798       -4.6577330891
 H        -5.7874741204        2.2093536357       -3.9076550715
 H        -9.1005599838        5.6341389011       -7.7861528406
 H        -7.4081656646        6.1282052028       -7.1898706318
 H        -8.5263967382        7.1987228802       -8.0877863220
 H        -8.4889922558        8.6182112858       -4.9062673961
 H        -7.1247318618        8.1359336270       -6.0259196150
 H        -7.4797274027        7.2814507485       -4.5726196410
 Na       -9.3509646089        3.3449027234        2.8875869644
