117

 C       -10.8971696968        8.8057807728       -5.6180321028
 C       -10.3923377187        7.7700660743       -6.6076637863
 O       -10.8636981737        7.6004617612       -7.6760645112
 C        -9.1016741348        6.8680835075       -6.1839600063
 C        -9.7098299087        5.9697668177       -5.0783195765
 O        -9.7323059425        6.2861982282       -3.9087404572
 C       -10.3518713196        4.6793778988       -5.5336323249
 C        -9.3824125123        3.4291985106       -5.4842504731
 C        -9.3782831002        2.6636105974       -4.0382059195
 O       -10.2403548743        2.9410300304       -3.2284862954
 C        -8.1175512908        1.8093590710       -3.6697321130
 C        -8.2488025775        1.3830059909       -2.1492348011
 O        -7.8757593495        2.1894934292       -1.3242889642
 C        -8.7002825482        0.0066847761       -1.6521206076
 C        -8.4616952642       -0.1568405879       -0.2039724396
 C        -7.0145069427       -0.1189359701        0.1597972068
 O        -6.1175985116       -0.1168303698       -0.6629094692
 C        -6.6907416723       -0.1032348150        1.7523364890
 C        -7.1892619436        1.2307225907        2.3114848172
 O        -8.4110483167        1.3514310389        2.5986519339
 C        -6.1175267540        2.3385067780        2.5373552914
 C        -6.0014904062        3.2886862108        1.3183277925
 C        -6.8516404342        4.5589218240        1.6203680617
 O        -7.3950765604        4.7255393741        2.7188998259
 C        -7.3628455719        5.5012530241        0.3594933810
 C        -8.8894109462        5.0459474738        0.0878116803
 O        -9.4814894617        4.3854234799        0.9034187677
 C        -9.5051294257        5.7336190425       -1.0805841572
 C       -10.9321081954        5.2830537608       -1.2686802499
 C       -11.8069011063        5.5553922740        0.0075076387
 O       -11.7980110573        6.6492721450        0.5210315901
 C       -12.9225703797        4.4486621273        0.6578793032
 C       -12.2893542790        4.1327072770        2.0720670530
 O       -11.6919296553        3.1013654349        2.2639723770
 C       -12.4442664649        5.1962809225        3.2591499302
 C       -11.3905055776        4.9198125369        4.3088062926
 C       -11.5135057555        3.6314679585        5.0909028387
 O       -10.6269512934        2.7725609091        4.9853133033
 C       -12.5097528796        3.5287695336        6.2477827511
 C       -13.6261678517        2.6044268805        5.5185061106
 O       -14.5464487559        3.1708065278        5.0318108301
 C       -13.4527285597        1.0759772005        5.4515787806
 C       -11.7544301924        2.7395502013        7.2934449269
 C       -13.1325040412        4.8333240080        6.7442897061
 C       -14.2881363605        5.2243072733        0.7128314251
 C       -12.9494471611        3.1687652108       -0.2661378659
 C        -7.1308117856        6.9561707294        0.8908104914
 C        -6.4517663640        5.2207754807       -0.8407626228
 C        -7.5599660019       -1.2243302077        2.4551679583
 C        -5.2349087422       -0.4000992035        2.0466530472
 C        -7.9249540799        0.5345155295       -4.5845571096
 C        -6.8721515905        2.7335568381       -3.7210178092
 C        -8.5380268791        6.0584988374       -7.4079426423
 C        -8.0322644835        7.7607656832       -5.4723708210
 H       -10.1533996866        9.5487002256       -5.4083934156
 H       -11.0624531030        8.4208263442       -4.6405340178
 H       -11.7738837098        9.2945112162       -5.9969582907
 H       -10.7894755696        4.8853558159       -6.5624204813
 H       -11.1970144516        4.4534781000       -4.8520815732
 H        -8.2943198112        3.5842261845       -5.7785316595
 H        -9.6899873342        2.5992862385       -6.2177496619
 H        -8.3593649126       -0.8636630975       -2.1845032723
 H        -9.7354623415       -0.0051898487       -1.9559259163
 H        -8.9814243334       -1.0950426244        0.1004603558
 H        -8.9459609657        0.6168610462        0.3064132040
 H        -5.2594924896        1.7984154388        2.7758867198
 H        -6.4265657791        2.8311373570        3.5122282538
 H        -6.2851649081        2.8075239191        0.3597880118
 H        -4.9698743434        3.6096326411        1.2384474603
 H        -8.9032728304        5.4447345189       -1.9655687069
 H        -9.4032196973        6.8065354117       -0.8748047604
 H       -11.0725672239        4.2573020104       -1.5768705375
 H       -11.5185825672        5.8062244728       -2.0377984764
 H       -13.4353534638        4.9183435523        3.6198284864
 H       -12.3544834736        6.2108570279        2.7920800866
 H       -11.4043263044        5.7341571215        5.0266776526
 H       -10.4252194135        4.9786727348        3.8785619010
 H       -13.5937731195        0.6685416772        6.4899124866
 H       -12.4931715390        0.7776579383        5.1427455213
 H       -14.2080483072        0.5911567187        4.8314587951
 H       -11.3220431036        1.9049050666        6.8222481217
 H       -12.2976289515        2.4070442329        8.1512163239
 H       -10.9117290978        3.2473034107        7.6505369624
 H       -13.8856729188        5.1957976923        6.0017837529
 H       -12.4645859739        5.6708365623        6.7678067285
 H       -13.5980600600        4.7539815962        7.7137781781
 H       -14.6086914284        5.5311981956       -0.2896793662
 H       -14.1590014552        6.1147086652        1.3978584554
 H       -15.0698429521        4.5777220167        1.0430832374
 H       -13.6992537732        2.4413644360        0.0296670455
 H       -12.0369042712        2.6342118353       -0.1970958950
 H       -12.9980305797        3.4295419966       -1.3049314995
 H        -7.6207603206        7.0616977825        1.8480828503
 H        -7.5298599893        7.7228084844        0.2188246981
 H        -6.0738183914        7.1086175068        0.9493721600
 H        -5.5510562297        5.7312249543       -0.6117322273
 H        -6.8632763932        5.5889662692       -1.7459068527
 H        -6.2893368040        4.1383472457       -0.9182375054
 H        -7.5303413701       -2.2156193365        1.9176534248
 H        -8.6141882913       -0.8025401498        2.4389043344
 H        -7.3059855188       -1.4219625777        3.4936696089
 H        -5.0065207088       -0.1803117369        3.0454108293
 H        -4.5860109434        0.2205356188        1.3906294593
 H        -5.0589812055       -1.4190765914        1.6315102127
 H        -7.3325113265        0.7268105584       -5.4686648993
 H        -8.8417275673        0.0521792021       -4.9578764748
 H        -7.3893907881       -0.1372817300       -4.0233182183
 H        -6.7511805576        3.3710590654       -2.8726535038
 H        -6.7453691532        3.2971606454       -4.6896441456
 H        -6.0072599974        2.0572622125       -3.6781305790
 H        -9.4163998068        5.6988651768       -7.8918579453
 H        -7.8854376003        5.2471038121       -7.0506392703
 H        -8.0050709649        6.6511728680       -8.1496650333
 H        -8.4268400876        8.4152803420       -4.6770298023
 H        -7.5942698311        8.3711812038       -6.3105856452
 H        -7.2527254055        7.1293155672       -5.0190746269
 Na       -9.4063092445        3.3094306869        3.0598474128
