117

 C       -10.8756252098        8.8712283757       -5.7708492420
 C       -10.2953403547        7.7944251146       -6.7218612383
 O       -10.8943297868        7.5026288582       -7.7543823940
 C        -9.1389602543        6.8756058862       -6.2171937597
 C        -9.7715297192        5.9201059977       -5.1036708648
 O        -9.6871133667        6.2909978309       -3.9599498097
 C       -10.5379167518        4.5804386938       -5.5253246102
 C        -9.4856691717        3.4805714579       -5.3922452409
 C        -9.3787448370        2.7693420398       -4.0575126254
 O       -10.2072730114        2.8857253716       -3.2298550966
 C        -8.0552253128        1.7614742860       -3.6970119692
 C        -8.2536807672        1.3771235036       -2.1970719930
 O        -7.8228292953        2.2087073045       -1.3757834064
 C        -8.7073392457        0.0072706033       -1.7255574592
 C        -8.4707538194       -0.1087682664       -0.1949502008
 C        -6.9951960196       -0.1696644392        0.2187471614
 O        -6.0777038019       -0.1982444269       -0.5518223346
 C        -6.6994602246       -0.1874966430        1.8139366313
 C        -7.1262881578        1.1645586020        2.4126085606
 O        -8.3118952593        1.3258359772        2.7610869179
 C        -6.1206407584        2.3293183224        2.6099438577
 C        -6.1509900880        3.2466837713        1.3286219881
 C        -6.9695056496        4.4464426278        1.6037694978
 O        -7.4224287607        4.7725896082        2.6408704993
 C        -7.2600229887        5.4146690575        0.4001232936
 C        -8.8637173990        5.1454788734        0.1955380238
 O        -9.4439880734        4.4448522517        0.9714532398
 C        -9.5638025970        5.6571321507       -1.0860956363
 C       -11.0687647669        5.3117616633       -1.2344796150
 C       -11.9265626108        5.6306148042        0.0030265832
 O       -11.7848342861        6.7264645235        0.5632027864
 C       -12.8529382360        4.6114103132        0.6489619674
 C       -12.3371433453        4.2171570687        2.0657098654
 O       -11.7749789718        3.1350997361        2.1863001227
 C       -12.3998209643        5.1892094613        3.2438993140
 C       -11.2711939908        5.1096104532        4.3254528804
 C       -11.3148897824        3.7647957778        5.1004606580
 O       -10.5671286911        2.8076143325        4.8438262861
 C       -12.4440576660        3.4667603606        6.1547265475
 C       -13.6550647035        2.6143630522        5.4892047418
 O       -14.5265101584        3.1935884795        4.8860147349
 C       -13.4646279244        1.1663433156        5.4152125385
 C       -11.8312212777        2.7085474563        7.3779722798
 C       -13.2029043332        4.6801535387        6.8087490587
 C       -14.2021842724        5.3469679772        0.7503818858
 C       -13.0313217900        3.2820469197       -0.1153950009
 C        -7.2213706828        6.9054342021        0.7996020556
 C        -6.4057816789        5.2255832837       -0.8465849302
 C        -7.5559551546       -1.2472033294        2.5942344703
 C        -5.2149913276       -0.5409874453        2.0385451173
 C        -7.9064938380        0.5324560261       -4.5841170612
 C        -6.7635670033        2.5968950146       -3.7636987329
 C        -8.6093360867        6.0489815557       -7.3378970257
 C        -7.9915017700        7.7295148133       -5.6330012144
 H       -10.1162996018        9.6316039832       -5.4852088720
 H       -11.1695465797        8.5072294211       -4.7982993956
 H       -11.6749129318        9.3968776318       -6.2356480908
 H       -10.9347508632        4.6912837227       -6.5086989531
 H       -11.3469259334        4.3746891536       -4.8463937871
 H        -8.4841623516        3.7600116015       -5.6638201526
 H        -9.6440216233        2.5717012606       -6.0540269537
 H        -8.1543006885       -0.7623783181       -2.2266957386
 H        -9.6834575905       -0.1474710794       -2.2241774019
 H        -8.9524112863       -1.0387261931        0.1801178726
 H        -8.9624141027        0.7201077252        0.2869093330
 H        -5.1612733160        1.8146175580        2.7964562430
 H        -6.4507601996        2.6964726464        3.5839100487
 H        -6.2777562996        2.6257966830        0.4301906179
 H        -5.1146205159        3.7910593711        1.1968870902
 H        -9.0398596107        5.1444387482       -1.9333766712
 H        -9.3785039158        6.7830457129       -1.1197158660
 H       -11.2853404612        4.3143239394       -1.5971405717
 H       -11.5925059088        5.8864187280       -1.9702503193
 H       -13.4065131924        5.0590382064        3.6399871506
 H       -12.2366599302        6.0848416404        2.6596750166
 H       -11.4375641797        5.9531237129        4.9940846312
 H       -10.3025674078        5.2499789132        3.8485021433
 H       -13.2961363808        0.7769960180        6.3685562581
 H       -12.5682572653        0.8977671365        4.7903796145
 H       -14.3701388021        0.6600358201        5.0356991261
 H       -11.4474481193        1.7363410967        7.1836975146
 H       -12.4630214747        2.7154321767        8.2429324389
 H       -10.8967532540        3.2232288920        7.6805599990
 H       -13.9895667005        5.1124705900        6.2051398794
 H       -12.5042471828        5.5468937839        6.8566647298
 H       -13.5585582861        4.4662207885        7.8205156965
 H       -14.6393184911        5.4346489503       -0.2162066294
 H       -14.0774252202        6.2955482169        1.2104825034
 H       -14.8854521678        4.6936795734        1.3113839669
 H       -13.8871634811        2.7892528981        0.2828966759
 H       -12.2065934261        2.5595061909        0.0081906297
 H       -13.1186223991        3.4008782127       -1.2018526378
 H        -8.0206642798        7.1296541889        1.4812713871
 H        -7.4669798239        7.4565296818       -0.0933212458
 H        -6.2195889370        7.2321587856        1.0956049295
 H        -5.4763769016        5.6877757796       -0.7528348132
 H        -7.0217017866        5.7537439929       -1.5793894426
 H        -6.3853338832        4.1628674398       -1.1085194121
 H        -7.3710738481       -2.2354202371        2.2617298351
 H        -8.6130215673       -1.0084691865        2.6095884821
 H        -7.2442117004       -1.2317785757        3.6203891646
 H        -4.9581611418       -0.3281679914        3.0737495629
 H        -4.6107369698        0.0010186134        1.4292365684
 H        -5.0554855916       -1.5598866370        1.6319951195
 H        -7.2701414420        0.6861099847       -5.4857426371
 H        -8.7559909953        0.0542998321       -4.9893065426
 H        -7.3309636348       -0.1326665665       -3.9098332160
 H        -6.7862970596        3.5345713569       -3.2191107757
 H        -6.4338039681        2.7829665893       -4.7732841559
 H        -5.9562553892        1.9996088416       -3.2690929489
 H        -9.3639693878        5.8145456506       -8.0926901242
 H        -8.1635810726        5.1899293178       -6.8784722584
 H        -7.7685006377        6.5614272351       -7.8408723307
 H        -8.1108682693        7.9710341267       -4.5824783340
 H        -7.9454582280        8.6733238921       -6.2622479161
 H        -7.0599887795        7.1290204271       -5.7016943310
 Na       -9.4178376007        3.2724983250        3.1260919502
