117

 C        -5.5198457979       -4.6493143109        4.5210840000
 C        -5.8964602042       -5.4289643855        3.3027860111
 O        -5.1532569489       -6.2417569620        2.7936878178
 C        -7.1984680480       -4.9454685047        2.4627204023
 C        -8.3743201003       -4.5144240282        3.3864744097
 O        -8.9378538547       -5.3653016026        3.9730223420
 C        -8.7739823992       -2.9721484156        3.2872794309
 C        -9.5784212469       -2.4195633831        4.4643759812
 C       -10.6296243076       -1.3997421995        3.9520496754
 O       -11.0800717733       -1.5910182600        2.7743271485
 C       -11.0480966826       -0.1336546835        4.7105689189
 C        -9.9830699492        0.9200535766        4.0367545837
 O        -8.8185897626        0.8773594761        4.3059999020
 C       -10.5259242064        1.9049266367        2.9757754988
 C        -9.3728082433        2.1331914780        1.8534015061
 C        -9.8757420973        2.7854973444        0.5800639581
 O        -9.6598946407        3.9713037436        0.4003263369
 C       -10.6337458893        2.0065123046       -0.5107097711
 C       -12.1583452785        2.4544730714       -0.3754257413
 O       -12.5928953899        2.7479464660        0.6988032128
 C       -13.0542035034        2.5539319367       -1.6845997673
 C       -13.8952578556        3.8626847782       -1.6411500338
 C       -12.8835476866        5.0409652853       -1.5990389290
 O       -11.8189349583        4.8226141654       -1.0992825193
 C       -13.2576593875        6.4691598525       -2.1459007911
 C       -12.1393288628        6.7599694157       -3.1717652215
 O       -10.9619470532        6.4576744351       -2.9253917849
 C       -12.4779443017        7.6687655665       -4.4221283609
 C       -11.3196376928        8.4063395598       -4.9919394292
 C       -11.0240612846        9.7314799166       -4.2438629529
 O       -11.8885198080       10.1759136587       -3.5552257457
 C        -9.6615325848       10.4543152985       -4.4228786515
 C        -8.8937555159       10.0200661727       -3.1416802748
 O        -8.0278283723        9.1429334988       -3.1787220965
 C        -9.2030300822       10.7599684940       -1.7719227223
 C        -8.1837474476       10.2564828416       -0.6672911154
 C        -8.3348673174        8.7428143509       -0.5285932784
 O        -9.4448400519        8.2036925704       -0.5038272301
 C        -6.9980218915        7.8411193079       -0.3789205477
 C        -7.0191363118        6.9048565795       -1.5477067943
 O        -7.8147678928        5.9717620626       -1.7873487854
 C        -6.0092597187        7.1541501098       -2.7609915235
 C        -5.7000015214        8.6328000564       -0.2227808071
 C        -7.3227440417        6.9432236827        0.8605327638
 C        -8.9014787295       10.0566565230       -5.7313413939
 C        -9.9049589994       11.9809118069       -4.2519618790
 C       -14.6860692876        6.4817855303       -2.7883628125
 C       -13.0371353615        7.5377533858       -1.0396867835
 C       -10.0970009456        2.4225541092       -1.9372866362
 C       -10.4473267162        0.4466190965       -0.3251803591
 C       -12.5396481334        0.2536971314        4.5610741381
 C       -10.7763159119       -0.0898721985        6.2213867705
 C        -6.6786626653       -3.9027027223        1.4674730188
 C        -7.6076330511       -6.1534566954        1.6486644089
 H        -5.8139741687       -3.6045701155        4.4914593881
 H        -4.4072016316       -4.7077332337        4.5722706001
 H        -5.8329047131       -5.2300810466        5.4058884124
 H        -9.3464283986       -2.8552273263        2.3931690527
 H        -7.8569594497       -2.3876737547        2.9602469114
 H        -9.0226773409       -2.1008637955        5.2861016424
 H        -9.9803471268       -3.3595248469        4.8145802264
 H       -10.7598533600        2.8548900673        3.5014854760
 H       -11.4962525343        1.5912422214        2.5945641429
 H        -8.9918575868        1.1535431508        1.6139988944
 H        -8.5532475790        2.7460210796        2.3635289564
 H       -13.7249623426        1.6954790563       -1.7495574660
 H       -12.3190966105        2.7496185243       -2.4577528473
 H       -14.4617432942        3.9290902977       -0.6513142057
 H       -14.5780751923        3.7954597263       -2.4387629545
 H       -13.2245958195        8.4120120219       -4.1412628116
 H       -12.9129225694        7.1081781817       -5.1807952768
 H       -11.6252903043        8.7698416784       -5.9685672212
 H       -10.4331143000        7.8093213201       -5.2757479370
 H       -10.1882824156       10.5695971000       -1.4438227839
 H        -9.0961319428       11.8790684125       -1.8796828523
 H        -8.5629835140       10.5929113507        0.2921066555
 H        -7.1635942890       10.6225656052       -0.7398513917
 H        -5.9967147425        8.2298640227       -3.0081405492
 H        -6.2727699752        6.6409889334       -3.6160127478
 H        -4.9814039069        6.8867279239       -2.4389475397
 H        -5.5069331744        9.1576373987        0.6626522746
 H        -5.6117643568        9.3125429713       -1.0530324001
 H        -4.8713771296        7.9379402807       -0.3705492757
 H        -7.7778344194        7.4329842902        1.7471195296
 H        -6.2109776951        6.7421073284        1.2699625436
 H        -7.7258851722        6.0007674010        0.5993619912
 H        -8.6932372253       10.9902712315       -6.2928042210
 H        -9.4230739915        9.4539905145       -6.4624084854
 H        -8.0610170452        9.5035147817       -5.4169157624
 H        -9.0802062122       12.4963764658       -3.8223007196
 H       -10.7833835450       12.1182105684       -3.5676462316
 H       -10.1867240676       12.4189635619       -5.1512417328
 H       -15.5157762119        6.1820155265       -2.1543618479
 H       -14.7934177533        5.8604761871       -3.6751358589
 H       -14.8638483187        7.4944407171       -3.1738665377
 H       -13.6868476101        7.2798224065       -0.2096112738
 H       -13.0699295675        8.6384589739       -1.3480797437
 H       -11.9892711916        7.4653232311       -0.7004325268
 H       -10.4113676631        1.7626790061       -2.7227125374
 H        -8.9445972888        2.3292201384       -1.8955632948
 H       -10.2222577166        3.4933751224       -2.1887444642
 H       -10.6786468997        0.0371387358        0.6657547406
 H        -9.3910786352        0.2416898862       -0.4997767429
 H       -11.0626374194        0.0308797288       -1.0938507761
 H       -13.2424971339       -0.4369925879        5.0673784270
 H       -12.9242662880        0.4054941023        3.5334640589
 H       -12.7016491424        1.2187508588        4.9811432608
 H       -11.5866905546       -0.6527125794        6.7553216863
 H       -10.8929145414        0.9225328082        6.5913334434
 H        -9.8299509975       -0.6466137724        6.4090549740
 H        -5.9458878872       -3.1019258593        1.7824108793
 H        -7.4817415205       -3.3766948359        0.9795782134
 H        -6.0858330678       -4.5331323123        0.7190143737
 H        -8.4011241005       -6.6828325653        2.1677729386
 H        -6.7679982758       -6.8243602217        1.5552506569
 H        -7.9411908640       -5.9487655121        0.6531559393
 Na       -9.8081517461        6.0364659480       -0.7952289665
