117

 C       -10.7157311183        9.0062532706       -6.2591564099
 C       -10.3907801313        7.6547954496       -6.9279415530
 O       -10.9948771276        7.2325227279       -7.9035011474
 C        -9.1671255442        6.7798601755       -6.4017041706
 C        -9.7978558211        5.8961582679       -5.2293050999
 O        -9.7014636484        6.3425082164       -4.1076702032
 C       -10.3387393835        4.4831124255       -5.4777207746
 C        -9.3483130305        3.2851825598       -5.3650605425
 C        -9.2504598289        2.6600262585       -3.8817286087
 O       -10.1461337006        2.7253789861       -3.1152725134
 C        -8.0003626536        1.7863066022       -3.6644738296
 C        -7.9793995018        1.4826950799       -2.1273242972
 O        -7.7398019994        2.4133446747       -1.3483009429
 C        -8.4432806874        0.1054948466       -1.5895728528
 C        -8.4350169083       -0.0735166233       -0.0540496539
 C        -7.0064157941       -0.2684148795        0.4354451609
 O        -6.0967586257       -0.4133610478       -0.3307108645
 C        -6.6815415297       -0.4211201235        1.9911685732
 C        -7.0917881247        0.9856916983        2.5214659785
 O        -8.2306150907        1.2121859948        3.0082819531
 C        -6.0116307248        2.0943376980        2.4865858825
 C        -6.2422278559        3.1312850951        1.2999752076
 C        -7.0956906205        4.3887915972        1.6676365355
 O        -7.3598282787        4.6586700760        2.8203450445
 C        -7.5727056987        5.3086273805        0.3825677380
 C        -9.0666522578        5.1523480673        0.1615743215
 O        -9.6996839361        4.6235844765        1.0056840514
 C        -9.6368481446        5.6487783587       -1.1662559085
 C       -11.1501032909        5.2267935702       -1.2117816533
 C       -11.8800740926        5.6989667586        0.1075489779
 O       -11.5816888915        6.7955445772        0.5970246023
 C       -12.9830728899        4.8291000356        0.8792802329
 C       -12.2219574563        4.5095870250        2.1621355553
 O       -11.6512052280        3.4422151050        2.2610649883
 C       -12.3543334233        5.4555796245        3.3782597412
 C       -11.3436723036        5.2588872574        4.4821769603
 C       -11.3764308681        3.9042812488        5.1676918077
 O       -10.4202511161        3.1298825950        5.0068386197
 C       -12.4759005589        3.4805992024        6.1844138836
 C       -13.5395469219        2.7301914915        5.1518317518
 O       -14.3008289078        3.3521145528        4.4569699198
 C       -13.4895553585        1.2442825981        5.2126238878
 C       -11.8874757842        2.6143874390        7.3559238068
 C       -13.2313951204        4.7416342970        6.7771457260
 C       -14.2063170776        5.7086216046        1.2110292406
 C       -13.3969812766        3.6632910227       -0.0473576810
 C        -7.3963130558        6.8044735465        0.9330247399
 C        -6.6214933491        5.0776408472       -0.8789350918
 C        -7.5208951164       -1.4856804024        2.6584743774
 C        -5.1853019741       -0.7803824308        2.1883640288
 C        -8.1712482994        0.4929832843       -4.5062562566
 C        -6.7072459250        2.5658195760       -4.1346921435
 C        -8.7242960811        5.8447272067       -7.6183831418
 C        -7.9872126734        7.6047919429       -5.8816517054
 H        -9.9251299762        9.7771677504       -6.3767342219
 H       -10.9216125251        8.9653408200       -5.1926482897
 H       -11.5878567910        9.4093297046       -6.7614635394
 H       -10.8995140495        4.3717655016       -6.4729242891
 H       -11.1150775536        4.3586920712       -4.6702236529
 H        -8.3714673268        3.3520097548       -5.8829426320
 H        -9.8962318495        2.4237179794       -5.8609044669
 H        -7.7543730867       -0.5474303446       -2.1189379797
 H        -9.3669038093       -0.2130581167       -2.0731256866
 H        -9.0692134131       -0.9787025899        0.1696634657
 H        -8.8976731761        0.7822299593        0.3523571135
 H        -5.0915596103        1.6312579232        2.6257387353
 H        -6.2352980057        2.6589651583        3.4357012943
 H        -6.6208115055        2.7545597300        0.3763273715
 H        -5.2397759920        3.4255241191        1.0525906445
 H        -9.1068673780        5.1434369215       -1.9731131215
 H        -9.4918853616        6.6965497084       -1.2414135918
 H       -11.3882104165        4.1794566278       -1.4412565778
 H       -11.6243321303        5.7644743220       -2.0690269034
 H       -13.3944677110        5.2503573284        3.6663248302
 H       -12.1873553366        6.4584253805        2.8936256652
 H       -11.5590318820        6.0547177355        5.2061687111
 H       -10.3412489818        5.3980296688        4.1074932939
 H       -13.1838126687        0.9425171091        6.1885354349
 H       -12.6581651891        0.9323730659        4.6001136276
 H       -14.3850373420        0.6878192962        4.8760506357
 H       -11.0288360577        2.0338233357        7.0526919816
 H       -12.6818018697        1.9790002312        7.7501367258
 H       -11.5290282888        3.2039782993        8.2192036328
 H       -13.5298421205        5.4814501038        6.0133336881
 H       -12.6576050432        5.2965410545        7.5075174866
 H       -14.1004967026        4.3532180287        7.2503871377
 H       -14.7237225243        5.8804789030        0.2516703751
 H       -13.9106233802        6.7267032650        1.5972057246
 H       -14.8246679587        5.1874899602        1.9496458115
 H       -14.1817133874        3.0036860483        0.3243880470
 H       -12.5571433409        3.0213982708       -0.2974510709
 H       -13.8139224915        4.0668158848       -0.9809307426
 H        -8.0678168148        6.9036962653        1.7702933154
 H        -7.7173352605        7.5805702220        0.2244299139
 H        -6.3430399306        6.9734137815        1.1551738277
 H        -5.6966510110        4.9792201958       -0.3771053663
 H        -6.6163772940        5.9708968079       -1.4992327843
 H        -6.8706773722        4.1108534444       -1.3969513813
 H        -7.3909895782       -2.5168512613        2.2382606711
 H        -8.6181230167       -1.1641166925        2.5861357091
 H        -7.2769235021       -1.5416436944        3.7292606266
 H        -5.0550152816       -0.9768466432        3.2729116194
 H        -4.4309386362       -0.1530582532        1.7618051315
 H        -5.0057416005       -1.8013964859        1.6163576220
 H        -8.7934639017        0.7582849831       -5.3536696964
 H        -8.9217570484       -0.1185831804       -4.0506261780
 H        -7.3270031623       -0.0891182692       -4.7627327702
 H        -6.9150645878        3.5870003177       -4.3123145585
 H        -6.3144426662        2.2234789377       -5.1115861604
 H        -5.8974853601        2.5590313447       -3.3890946177
 H        -9.4040045701        5.0177104093       -7.7495669308
 H        -7.7486495510        5.4289875650       -7.3757374253
 H        -8.6260235676        6.4028426774       -8.5656726776
 H        -8.0993056792        7.8932628910       -4.8691361991
 H        -8.0079598339        8.5631621016       -6.4127908436
 H        -7.1117651380        6.9993745607       -5.9529236085
 Na       -9.2766176170        3.2697335220        2.8618172754
