117

 C       -10.6476271923        8.9159375739       -6.3565212277
 C       -10.3688410604        7.6002591472       -7.0472260209
 O       -11.1406757467        7.1494132821       -7.9003470424
 C        -9.1535489055        6.6915612149       -6.4934626786
 C        -9.6914967491        5.8509687324       -5.2564578710
 O        -9.7522682196        6.3253658056       -4.1232217618
 C       -10.4295141058        4.5101030796       -5.5060873146
 C        -9.4730875948        3.3682746734       -5.3300695215
 C        -9.3818716895        2.6686109325       -4.0104000524
 O       -10.1493114381        2.8269170984       -3.0791568299
 C        -8.1170168060        1.7124370196       -3.6825216468
 C        -7.9656191060        1.4599131762       -2.1236987984
 O        -7.6611231900        2.3637926145       -1.3301767931
 C        -8.4369394012        0.1204268103       -1.6219156510
 C        -8.2710523649        0.0489656393       -0.0444494285
 C        -6.8793231926       -0.3661026926        0.3994389835
 O        -5.9467985141       -0.4612007968       -0.3425167761
 C        -6.7366613514       -0.4458063261        1.9978725678
 C        -7.0729069822        1.0009153793        2.5370341470
 O        -8.2198235265        1.1107883474        2.9429778730
 C        -6.0635198699        2.1795027310        2.4872511877
 C        -6.2616591171        3.1277994961        1.2399916967
 C        -7.0307674713        4.3140475932        1.6082830896
 O        -7.3331441689        4.5564523895        2.7484745308
 C        -7.4106021747        5.2903899067        0.5712101419
 C        -9.0769124703        5.0335552057        0.1081697216
 O        -9.8151205302        4.6129328464        0.9993578401
 C        -9.7494946822        5.6431402104       -1.1391946285
 C       -11.2896845412        5.2523832366       -1.1910580796
 C       -11.9071064948        5.7942154569        0.0696936568
 O       -11.5106061638        6.8261711335        0.5662243407
 C       -12.9725886070        4.9602335033        0.8482996888
 C       -12.2668149140        4.4875121366        2.2086134557
 O       -11.6454441304        3.4415801710        2.3131340931
 C       -12.3727414523        5.4951375199        3.4479603734
 C       -11.2094989488        5.3569812393        4.5190149995
 C       -11.2267857697        4.0155008721        5.2175795792
 O       -10.3558647298        3.1816977498        4.9822069872
 C       -12.5107676505        3.5021517588        6.0714259012
 C       -13.4666513351        2.7797818204        5.1203265031
 O       -14.2110117624        3.4447837039        4.3990686580
 C       -13.4901308642        1.2560792970        5.1054578049
 C       -11.9820083387        2.6675995383        7.2749213481
 C       -13.3332213806        4.6469960417        6.7811415742
 C       -14.1935919574        5.9027017555        1.1825075240
 C       -13.5031404956        3.7173989563        0.1760192002
 C        -7.2986762652        6.7931926102        1.0890241418
 C        -6.6495872693        5.2449470031       -0.8147541959
 C        -7.6403711802       -1.5013204600        2.6623481216
 C        -5.2656974719       -0.8055085004        2.2848882753
 C        -8.0639406273        0.3172968243       -4.3640539919
 C        -6.7471240459        2.3983185519       -4.0623414373
 C        -8.6785643903        5.7704759007       -7.6356277503
 C        -7.9389768343        7.5918336028       -6.0473193091
 H        -9.9721001620        9.6975332075       -6.7154239235
 H       -10.6083336408        8.9138048005       -5.2869080669
 H       -11.6103956273        9.2478981049       -6.6589534640
 H       -10.9312242493        4.3829101764       -6.4793416635
 H       -11.2466022346        4.5508459213       -4.7145976350
 H        -8.4121723476        3.7166939465       -5.4433568697
 H        -9.5999880021        2.5714016174       -6.1756497097
 H        -7.8757687853       -0.5920490841       -2.1585588614
 H        -9.4367882310       -0.1044804020       -2.0094420423
 H        -9.0466752865       -0.6336128905        0.2731350232
 H        -8.4552209499        1.0441135661        0.3721037744
 H        -5.0920514460        1.6238282015        2.4848600946
 H        -6.0502231181        2.7844329708        3.3721724054
 H        -6.6764744099        2.7857180650        0.3148612435
 H        -5.1639255593        3.2893213072        0.9700169460
 H        -9.2163001525        5.3615485070       -2.0593191330
 H        -9.6732657859        6.7534060649       -0.9455178216
 H       -11.6329334434        4.2138561359       -1.3043982863
 H       -11.6649945058        5.7524265699       -2.0773547975
 H       -13.3904731623        5.2017587390        3.7967828797
 H       -12.3301089411        6.4902586281        2.9778984358
 H       -11.2538837830        6.1979500909        5.1765188881
 H       -10.2578547659        5.3808098410        4.0152690530
 H       -13.5151510503        0.9582896657        6.1033951476
 H       -12.4978071443        0.8451421891        4.7498570191
 H       -14.2839031075        0.7917543483        4.5361787164
 H       -11.2972400878        1.8948526671        7.0470544272
 H       -12.8463420579        2.2588131093        7.7043294641
 H       -11.5286302921        3.3187813183        8.0195416940
 H       -13.9483209380        5.2291953307        6.1489999504
 H       -12.6763448801        5.2887307177        7.3968112483
 H       -13.9700404445        4.0836777747        7.4564480005
 H       -14.6567603074        6.2369662441        0.2421684164
 H       -13.8961062718        6.7908839048        1.7115496612
 H       -14.8777818426        5.2872190057        1.8639482949
 H       -14.4060032113        3.4073835416        0.6147695274
 H       -12.8073946931        2.8742153352        0.2430630300
 H       -13.8222643907        3.8530588166       -0.8463726596
 H        -7.6728950862        6.8835751902        2.1002758427
 H        -7.8404136067        7.4876199556        0.4892811776
 H        -6.2340773418        7.0603788729        1.0100289551
 H        -5.6244653525        5.3966416973       -0.6035764049
 H        -7.0397482002        6.0389729178       -1.4536860402
 H        -6.7952037926        4.2478872897       -1.1740194662
 H        -7.5655483363       -2.4510548611        2.0603697450
 H        -8.7139853407       -1.2281244756        2.7697789619
 H        -7.2121821095       -1.7578313162        3.7121645233
 H        -5.0124002699       -0.8599443618        3.4003990728
 H        -4.6196392893       -0.1605264060        1.7259422057
 H        -5.0585877678       -1.7756781517        1.8473173723
 H        -8.1720845961        0.4807937395       -5.4081333340
 H        -8.9060935541       -0.2251876886       -4.1389267643
 H        -7.1689144593       -0.2652696158       -4.1239070872
 H        -6.9503258589        3.4768464599       -3.9930852511
 H        -6.4723392958        2.2980311972       -5.0842053444
 H        -5.8643344506        2.2253856318       -3.4007589919
 H        -9.2932220228        4.8707624950       -7.7557221956
 H        -7.6930795993        5.4330867690       -7.4159393149
 H        -8.6406745860        6.3355223732       -8.5720968361
 H        -8.2062016154        8.4097675504       -5.4077638147
 H        -7.7083397903        8.1768631103       -6.9463962458
 H        -7.1443144454        6.9952939405       -5.5940707850
 Na       -9.3440334771        3.2578479665        2.9642823196
