117

 C       -10.5727385533        8.8205450345       -6.4379227862
 C       -10.4257059035        7.4678246286       -7.0514546074
 O       -11.1559920003        7.0278957209       -7.8691003882
 C        -9.1910708596        6.5964428049       -6.5991813751
 C        -9.8005287887        5.9020346257       -5.2882145431
 O        -9.6648000882        6.4193253563       -4.1875232451
 C       -10.4803820808        4.5024942716       -5.4919296800
 C        -9.4088068943        3.3356700342       -5.4048272192
 C        -9.3487783244        2.6309840071       -3.9641063282
 O       -10.2049739336        2.9136236072       -3.1274961969
 C        -8.1384702624        1.6646963345       -3.6551179440
 C        -8.0888871371        1.4367140374       -2.1009747868
 O        -7.6154092736        2.3311039223       -1.4664299852
 C        -8.4522055648        0.0582911167       -1.5214945150
 C        -8.2274430362        0.0997229952        0.0095421335
 C        -6.8314403241       -0.3340057294        0.4242725330
 O        -5.8543574437       -0.5528419477       -0.2953908852
 C        -6.6849471040       -0.4663824605        2.0042262382
 C        -7.1030014783        0.9424006821        2.5121237995
 O        -8.2141954530        1.2183535908        2.8523580426
 C        -6.0771856465        2.0975721475        2.4796421556
 C        -6.1805619512        2.9844987357        1.2242736509
 C        -7.0708495833        4.2824337526        1.5585818860
 O        -7.3894701485        4.4701127560        2.7253459327
 C        -7.5321095400        5.4160048046        0.4931996578
 C        -9.0624734831        5.1773903917        0.2083750435
 O        -9.7200672472        4.4851877982        1.0110432433
 C        -9.7210424446        5.6407997007       -1.0938330177
 C       -11.1782332919        5.2803669348       -1.1090091507
 C       -11.8559750150        5.8433538423        0.1808879411
 O       -11.5434061352        6.9312377495        0.5487620035
 C       -13.0449325944        4.9978810506        1.0392110819
 C       -12.3389614291        4.5570409736        2.3339037923
 O       -11.7728475267        3.4849183784        2.3266284926
 C       -12.2848565215        5.6178871076        3.4482325184
 C       -11.2233197470        5.3579301663        4.4854292855
 C       -11.2455470482        4.0185084274        5.1903345113
 O       -10.3567529794        3.2151400458        5.1045758263
 C       -12.4797484918        3.6311174926        6.1393862011
 C       -13.4207155439        2.8198425357        5.1049644387
 O       -14.1346002613        3.4444567387        4.3471865773
 C       -13.4651509520        1.2536117984        4.9747982840
 C       -11.9573428366        2.6170327237        7.1629696121
 C       -13.3488124878        4.7291270205        6.6863977802
 C       -14.1836346203        6.0660303514        1.1515802366
 C       -13.5758596128        3.7219584175        0.3497286865
 C        -7.3486573446        6.7586193328        1.1561966293
 C        -6.6462122457        5.4185790894       -0.8355263941
 C        -7.7146880236       -1.4682382568        2.5576224081
 C        -5.1944206747       -0.8529561069        2.3936652638
 C        -8.0677867430        0.2578869701       -4.4114180278
 C        -6.7561959724        2.3613289052       -4.0261675232
 C        -8.6416961175        5.6851388561       -7.6716996570
 C        -7.9775430173        7.5462062421       -6.1745222718
 H        -9.9399081000        9.4585783919       -7.0006630367
 H       -10.2741319328        8.8684967342       -5.3959388725
 H       -11.5662716361        9.2663504053       -6.4985603021
 H       -10.9308110766        4.3963809944       -6.4525704396
 H       -11.2822613733        4.3891387911       -4.7742065436
 H        -8.3736638428        3.7042069277       -5.5717320648
 H        -9.6118662789        2.6088652082       -6.1873138348
 H        -7.9110313440       -0.7322209229       -2.0643029768
 H        -9.4753466445       -0.2213806404       -1.7289997535
 H        -8.9803257167       -0.5628495857        0.3164574529
 H        -8.4217200857        1.1509944541        0.4080523238
 H        -5.0602685395        1.6274145626        2.6407262077
 H        -6.2011087586        2.7360431624        3.3477704273
 H        -6.7083682320        2.5463500559        0.3055320610
 H        -5.1170090832        3.0250428812        0.8771453417
 H        -9.2003489364        5.0446347210       -1.8839027657
 H        -9.5058731690        6.7589832867       -1.2153353963
 H       -11.3848407343        4.2156907301       -1.1599085163
 H       -11.5503880516        5.6993474168       -2.0399705838
 H       -13.2753910006        5.4137684329        3.8793746212
 H       -12.2165915354        6.5832524166        2.9925505625
 H       -11.4421177588        6.1103660790        5.2341688232
 H       -10.1918989301        5.5330919515        4.1577411392
 H       -13.9662872390        0.7788509922        5.8628677441
 H       -12.5202302528        0.7235175753        4.8617495185
 H       -14.0581289768        1.0602735120        4.1110736395
 H       -11.6113055165        1.7279078144        6.6182343855
 H       -12.8257731399        2.2901343251        7.7064703852
 H       -11.2089804431        3.0008956308        7.8070271192
 H       -14.0382602479        5.0133535304        5.8842044707
 H       -12.8189089209        5.5805997774        7.1183710672
 H       -13.9814367494        4.2721783591        7.4627273969
 H       -14.5175869350        6.3081431273        0.1443678093
 H       -13.7926172946        6.9811260274        1.5660989139
 H       -14.9591332704        5.7027447103        1.8122003531
 H       -14.5646541791        3.4179993727        0.6761114488
 H       -12.9097402298        2.8936502406        0.4755392500
 H       -13.7981733445        3.8772745719       -0.6837036802
 H        -7.5230301243        6.5438486159        2.2153145749
 H        -7.9252662520        7.6255606299        0.8865355923
 H        -6.2981530268        6.9845609564        1.0609318918
 H        -5.6346302166        5.7128663173       -0.4984015322
 H        -7.0116411419        6.0702012994       -1.5970494675
 H        -6.5838781000        4.4135722768       -1.0750973676
 H        -7.7407918335       -2.3465421586        1.8957723354
 H        -8.7164846870       -1.0576517440        2.5757331254
 H        -7.4493163842       -1.8043771150        3.5706212377
 H        -4.9574504509       -0.6942479899        3.4262798766
 H        -4.5141271804       -0.2860549654        1.7055252839
 H        -5.0082059984       -1.8688516715        2.2415896024
 H        -7.6813714527        0.3703146185       -5.4038967482
 H        -9.0827609431       -0.2114212515       -4.4819161208
 H        -7.4413410993       -0.4199925351       -3.8439636242
 H        -6.6912410357        3.3636496889       -3.5171848092
 H        -6.7774530401        2.6438286114       -5.0754853636
 H        -5.8560490709        1.8163751819       -3.8038718134
 H        -9.3559700778        4.9034620414       -7.9573577086
 H        -7.7035265137        5.1889722146       -7.4154249261
 H        -8.4651407217        6.3334109654       -8.5058504935
 H        -8.3184101852        8.5686342780       -5.8902188024
 H        -7.4152122677        7.8333732339       -7.0398919898
 H        -7.3976972233        7.1004776652       -5.3410301412
 Na       -9.3812047261        3.2313699197        3.0736543441
