117

 C       -10.7260659692        8.6966315615       -6.6798686797
 C       -10.4092786298        7.2986008714       -7.1252511929
 O       -11.2484724003        6.7335562929       -7.8463958128
 C        -9.1079500788        6.5051842049       -6.7011196968
 C        -9.5946809342        5.8514622948       -5.3347623361
 O        -9.5881245615        6.4693323859       -4.2835249473
 C       -10.3253120771        4.4106567029       -5.4481177488
 C        -9.4237080274        3.1731780017       -5.4884477645
 C        -9.2920148276        2.6455480138       -4.0584052685
 O       -10.1001008845        2.8052185542       -3.1845660425
 C        -7.9903254428        1.6395998143       -3.7312562846
 C        -8.0133817311        1.3963802862       -2.1869212209
 O        -7.7449859047        2.3481482826       -1.3972300635
 C        -8.4677046606        0.0524775388       -1.6036876133
 C        -8.3048587254        0.0022190645       -0.0576970989
 C        -6.8514257635       -0.3174171082        0.4759805539
 O        -5.9579206252       -0.6313537266       -0.2327602297
 C        -6.6805779762       -0.3886144529        2.0955815731
 C        -7.0273029000        1.0436486209        2.4729016564
 O        -8.2235037047        1.3312633861        2.7239046313
 C        -5.9464424943        2.1052439199        2.3654055606
 C        -6.1522963599        3.1174408337        1.1946303689
 C        -6.9017169664        4.3673637064        1.6639591361
 O        -7.5262732265        4.3296065968        2.7102235052
 C        -7.4455518057        5.3660468005        0.5579938898
 C        -8.9087759231        4.9389252660        0.2759970794
 O        -9.5593323338        4.3495634702        1.0948755255
 C        -9.6594334501        5.5353009171       -0.9454393444
 C       -11.1405673920        5.1594460105       -0.8872177285
 C       -11.8941105153        5.9457169494        0.2603550142
 O       -11.5659129680        7.0431408887        0.6641368727
 C       -13.0747031308        5.1497513849        1.0969605865
 C       -12.3948370474        4.7911350962        2.3760615673
 O       -11.9017320028        3.6961799384        2.6530065331
 C       -12.1823770945        5.8958053072        3.5114049960
 C       -11.1666739795        5.4326508142        4.5975475045
 C       -11.3044874280        3.9862501153        5.1537333897
 O       -10.2669946027        3.2731710430        5.2634462719
 C       -12.4817344382        3.5917806658        6.0018985210
 C       -13.5209803699        2.8137746009        4.9466163086
 O       -14.1648667533        3.5237702495        4.1999569704
 C       -13.3775460708        1.3511805080        4.7824438399
 C       -12.1087445968        2.6610384904        7.2000167358
 C       -13.2029388861        4.7909255823        6.6649439581
 C       -14.2190511624        6.1616442012        1.2936193669
 C       -13.6036210621        3.9473048861        0.2760369544
 C        -7.5070356380        6.7471870518        1.2967786531
 C        -6.5786894054        5.5016299059       -0.7820705963
 C        -7.6925895349       -1.5214267376        2.6059199838
 C        -5.2782112032       -0.8683623436        2.5278133569
 C        -8.4862332535        0.4859575856       -4.6737917195
 C        -6.6503953058        2.3354826535       -4.1197479688
 C        -8.8080127037        5.4565674441       -7.8115290742
 C        -7.8350903278        7.3864030577       -6.2542935268
 H       -10.1192709658        9.5029539428       -7.2110272712
 H       -10.6824889986        8.8064106398       -5.5864918433
 H       -11.7678425206        8.9328269014       -6.9203595655
 H       -11.0277706479        4.4038913310       -6.2890164852
 H       -10.9789150197        4.3163670147       -4.5871469125
 H        -8.4353886037        3.3358937432       -5.7711722066
 H        -9.8292887926        2.3458965248       -6.0615898011
 H        -7.8447679598       -0.7259524533       -2.0975454433
 H        -9.5219024303       -0.2419717359       -1.8968823441
 H        -9.0979440231       -0.7790642639        0.1444795926
 H        -8.5611469162        0.9525847671        0.3472468780
 H        -4.9979485988        1.6320707850        2.4536488270
 H        -6.0233728291        2.6786617134        3.3287697489
 H        -6.6136889709        2.6071009411        0.3658772602
 H        -5.2021189167        3.3463932097        0.7393351891
 H        -9.1336674003        5.2129689117       -1.8209569651
 H        -9.4530780000        6.5551556530       -0.7517609919
 H       -11.2186308657        4.0776237055       -0.6335361910
 H       -11.6665951978        5.3076769759       -1.8506578381
 H       -13.1617269112        6.0561411661        3.9337456457
 H       -11.8337122228        6.7749900312        2.9437098770
 H       -11.3141426440        6.1714407701        5.4357476164
 H       -10.1027756766        5.5484381214        4.3222058097
 H       -14.0372773255        0.7742528878        5.3688077506
 H       -12.3359066338        1.0384116412        5.0251376575
 H       -13.5535429582        1.1501214060        3.6997355007
 H       -11.6408064715        1.7102758869        6.9005181726
 H       -13.0446172321        2.3734646077        7.7525887499
 H       -11.4646317855        3.3365102112        7.8647454466
 H       -13.7602481895        5.3997798110        5.9434647355
 H       -12.4660148805        5.3241681950        7.3066636277
 H       -13.9508734699        4.3735737777        7.3499221055
 H       -14.6899604934        6.2451835342        0.3493727053
 H       -13.7688199177        7.1017666188        1.5091034471
 H       -14.9093615317        5.9419102135        2.1129365677
 H       -14.4560746099        3.4017636446        0.6403420771
 H       -12.8038725574        3.2043946584        0.0967261426
 H       -14.0382127959        4.2866019427       -0.6771285550
 H        -8.1191539536        6.6432072294        2.2006012765
 H        -7.9381149636        7.5290057139        0.6544179239
 H        -6.4899763824        7.0979390745        1.6059159072
 H        -5.5686595612        5.5633444612       -0.4506963541
 H        -6.8695382263        6.4535505819       -1.2878264112
 H        -6.7105749104        4.5542640980       -1.3881117000
 H        -7.6832826247       -2.3360784812        1.9649847297
 H        -8.6783254783       -1.1578573880        2.5685157597
 H        -7.4750962358       -1.8097458843        3.6126411139
 H        -5.0606482063       -0.6198734942        3.6179971119
 H        -4.5205028804       -0.4369592117        1.9426450144
 H        -5.1780015592       -1.9759090994        2.6401611882
 H        -8.3427827615        0.9309851372       -5.7093107862
 H        -9.4900111679        0.1151566252       -4.4880069076
 H        -7.7819282928       -0.4064394659       -4.6588806710
 H        -6.2234974301        2.9145690875       -3.3464432732
 H        -6.6622332855        2.9725572698       -4.9955246359
 H        -5.9424863307        1.5144853423       -4.3615758827
 H        -9.7927474898        5.1273414472       -8.1461830467
 H        -8.3061831568        4.5633078268       -7.4590570513
 H        -8.2455664295        5.8601170878       -8.6821901342
 H        -8.0197173626        8.3713470266       -5.9101616343
 H        -7.1659636560        7.5439703993       -7.1430292082
 H        -7.2832300226        6.8141035458       -5.5148296613
 Na       -9.4888564088        3.2133644185        3.1566300633
