117

 C       -10.7288633598        8.6468055555       -6.7495727424
 C       -10.4430222965        7.2194892865       -7.2008100399
 O       -11.1999130897        6.5300149031       -7.8038483813
 C        -9.1280856431        6.3899277841       -6.6721060653
 C        -9.6185876423        5.7896744291       -5.3915005538
 O        -9.4980213477        6.3688925498       -4.3264102856
 C       -10.3356789763        4.4709001722       -5.4826251999
 C        -9.5089030819        3.2389715160       -5.3949085648
 C        -9.2104636133        2.7446902233       -4.0074335049
 O       -10.0579369317        2.7671101448       -3.1470607499
 C        -8.0335887699        1.6963496383       -3.7861220646
 C        -8.0301711167        1.4041731914       -2.2159739634
 O        -7.7948011846        2.3368188838       -1.4858527691
 C        -8.3407170955       -0.0132171099       -1.6941274331
 C        -8.3272803715       -0.1072542602       -0.1678026820
 C        -6.9709960243       -0.5049457742        0.4205271914
 O        -5.9713997145       -0.6103986651       -0.2841406325
 C        -6.7858169913       -0.4285298632        2.0063145002
 C        -7.0495105696        1.1001783012        2.4233347106
 O        -8.1751062242        1.4104598707        2.7379615986
 C        -5.9071686548        2.0916197075        2.3576546907
 C        -6.0544323589        3.1313792779        1.2093998007
 C        -7.0218198690        4.2620635129        1.6699189370
 O        -7.3618998153        4.4109593026        2.8169490018
 C        -7.4760127971        5.3759961165        0.6307820545
 C        -8.9912084233        4.9998095953        0.3385984768
 O        -9.5804773565        4.1923447614        1.1150528747
 C        -9.7240558697        5.5498939033       -0.8419100565
 C       -11.1595708288        5.1646206871       -0.7449102901
 C       -11.8369402336        5.9325319516        0.3322490724
 O       -11.4504441024        7.0324101360        0.5865847900
 C       -13.0148568553        5.3020299438        1.1078556628
 C       -12.3545440472        4.8020461057        2.4751469435
 O       -11.9179391412        3.6961838848        2.6368556805
 C       -12.1372183528        5.9459898654        3.5871211604
 C       -11.0862086076        5.4794267366        4.6184027125
 C       -11.1928462639        4.0902351972        5.2779041084
 O       -10.2564526073        3.3217263896        5.1654483254
 C       -12.5501868573        3.6955031568        6.0448160793
 C       -13.4233190165        2.9299641040        4.8831161246
 O       -14.2607605384        3.5519669608        4.2602624281
 C       -13.3156170969        1.3728158915        4.6366226633
 C       -12.2840600990        2.6627072816        7.1512041610
 C       -13.3235778537        4.8528126328        6.6685646664
 C       -14.2962869291        6.2182209370        1.4215516887
 C       -13.5599790196        4.0661001212        0.3360391157
 C        -7.5640610175        6.7440725710        1.2677185178
 C        -6.4885801495        5.4525527233       -0.5764581503
 C        -7.7456254926       -1.3864785937        2.7605002161
 C        -5.3247854450       -0.8090195153        2.4311372519
 C        -8.4617870407        0.5151649098       -4.6131344734
 C        -6.6079749965        2.1946936781       -4.2248406833
 C        -8.7996144901        5.4645273079       -7.8505038365
 C        -7.8748872135        7.2530637808       -6.4971695592
 H        -9.9603787739        9.2901494245       -7.2095213073
 H       -10.7833467898        8.7862021389       -5.6658138786
 H       -11.6814586645        9.0250118209       -7.1494999235
 H       -10.9194930002        4.4510222870       -6.4277033701
 H       -11.1576330693        4.4314533774       -4.6770294685
 H        -8.5297401399        3.2782500185       -5.9190378919
 H       -10.0754264281        2.3082250941       -5.7377137483
 H        -7.6695805824       -0.7285236581       -2.1253559773
 H        -9.3447761923       -0.2757827150       -2.1189944176
 H        -9.0318743192       -0.9020071404        0.0104359337
 H        -8.6295746367        0.8367072110        0.2872504321
 H        -5.0007692355        1.4445515369        2.2333813364
 H        -5.7576543914        2.4881149814        3.3122985620
 H        -6.1476128491        2.5755379836        0.3458417632
 H        -5.1035776076        3.6567128952        0.9964657242
 H        -9.1936457940        5.0382761023       -1.6154113301
 H        -9.4454088692        6.6049323332       -0.8398380028
 H       -11.2561136287        4.0655425727       -0.7683152387
 H       -11.7104315147        5.5649599066       -1.6059803598
 H       -13.1619781473        6.0616564552        4.0200870588
 H       -11.8446279164        6.8388158745        3.0057208321
 H       -11.0721413060        6.2584601202        5.3757017159
 H       -10.0699383685        5.4908787433        4.2150383342
 H       -14.0463601755        1.0243646075        5.3432365875
 H       -12.3766586717        0.7845441024        4.8264756196
 H       -13.6828800515        1.1469497194        3.6643149751
 H       -11.5871421456        1.9358256969        6.7301972322
 H       -13.1430795120        2.1010711380        7.5166139995
 H       -11.8273569965        3.2828008686        7.9367983214
 H       -13.5155548325        5.6114017087        5.9693309084
 H       -12.6700269970        5.1389221477        7.5091463864
 H       -14.2881492737        4.5610192735        7.1010609114
 H       -14.9047136148        6.3344768608        0.5126568734
 H       -14.0015964040        7.1657367726        1.8143195782
 H       -14.8785424293        5.7120749727        2.2509541354
 H       -14.3856710542        3.5823840320        0.8265983741
 H       -12.8180603362        3.2653270741        0.1464463495
 H       -14.0580274528        4.3445568851       -0.5985350340
 H        -8.3628137412        6.8224965396        2.0220602574
 H        -7.8292889654        7.3762112886        0.4363304298
 H        -6.6422729111        7.1582817975        1.7304892093
 H        -5.4407041435        5.4052045621       -0.2191357954
 H        -6.6977271940        6.4185026873       -1.1168763948
 H        -6.7409864173        4.5899069387       -1.1590645555
 H        -7.7453591319       -2.4061575709        2.3502926032
 H        -8.7707159277       -1.0683253022        2.7387223967
 H        -7.3770649711       -1.3717588776        3.8207300181
 H        -5.1356915619       -0.5564416880        3.5281000343
 H        -4.6410258293       -0.1463077771        1.8384343218
 H        -5.0389496455       -1.8100336480        2.4643777188
 H        -8.5070629578        0.8154864832       -5.6295729807
 H        -9.3000402680       -0.0497569521       -4.2774423670
 H        -7.5600292706       -0.1378884493       -4.5936954351
 H        -6.0936893855        2.8409829104       -3.4860226736
 H        -6.4944936517        2.6526443852       -5.1661435535
 H        -6.0546359406        1.2568288614       -4.2928696940
 H        -9.6868048675        4.9456556909       -8.2653498062
 H        -8.1494483834        4.6849023743       -7.4780112419
 H        -8.2481267244        5.9708139841       -8.6479020341
 H        -8.0767833099        8.1266239372       -5.8893798684
 H        -7.5841335924        7.6317063718       -7.4718718885
 H        -6.9876153980        6.7292937651       -6.0913768662
 Na       -9.5372484101        3.2019288822        3.1665987267
