117

 C        -1.1383461348       11.4290752880        0.8387192412
 C        -2.7098049474       11.5559406058        0.5823452681
 O        -3.4131568485       12.1147751323        1.3735422092
 C        -3.3650781485       10.5844745012       -0.5124766763
 C        -3.5439272542        9.3539920921        0.4478297418
 O        -2.6632515601        8.5404064262        0.5535383150
 C        -4.7661619726        9.4337300508        1.3713325351
 C        -4.9674824584        8.0469034477        2.0496289609
 C        -6.4915708165        7.8403093247        2.3289147849
 O        -7.3531984535        8.4525485648        1.6965865426
 C        -6.9646333370        6.8688571014        3.4919999992
 C        -8.5328061581        6.6698180266        3.1109369652
 O        -9.4002308392        7.1427604790        3.7913247751
 C        -8.9899990862        5.8182966156        1.7934947580
 C       -10.4612526254        6.2045909605        1.4028411984
 C       -11.4734747566        5.1583864596        1.0550858991
 O       -11.0649165831        4.0261895155        0.9929410263
 C       -12.9995977025        5.4686679878        0.9349793071
 C       -13.6519216900        4.1791214160        0.3517841809
 O       -13.2984416936        3.5735989465       -0.6747071525
 C       -14.9517215539        3.6643572639        1.1120559216
 C       -15.6925085939        2.3692891160        0.5625727065
 C       -14.8386862998        1.0903182165        0.7066731525
 O       -13.9313866928        1.0620348797        1.5080263219
 C       -15.2231157844       -0.1479033046       -0.1022021644
 C       -13.8807598170       -0.8544047398       -0.7618292292
 O       -12.7543801571       -0.2938589722       -0.6871755696
 C       -13.9610201231       -2.2393891106       -1.3010130802
 C       -12.9197657078       -2.3715634492       -2.3521444162
 C       -12.9599705544       -1.2439722853       -3.3746395109
 O       -13.7005477058       -0.3070548161       -3.2928740242
 C       -11.8406305532       -1.4131029262       -4.5148375207
 C       -10.4511674359       -1.3577965078       -3.7370374937
 O       -10.1355348732       -2.2570347474       -2.9913727383
 C        -9.4803017568       -0.1407944518       -3.9386712106
 C        -8.5290264793        0.0170135392       -2.7106335987
 C        -9.0316339513        0.7956432452       -1.5146288852
 O       -10.1765133863        1.2190488332       -1.3938347999
 C        -8.0509212592        1.0859405376       -0.2633742535
 C        -8.8366808447        0.5784273510        0.9132846977
 O        -9.8820935764        1.1050853548        1.2208558271
 C        -8.3866795116       -0.5358036392        1.7474108353
 C        -6.6988889851        0.3962961173       -0.5426394022
 C        -7.8852453793        2.5877375988       -0.0502792911
 C       -12.0179298433       -2.6813959092       -5.3128841814
 C       -12.0528566975       -0.2767221579       -5.4341242971
 C       -15.7055057374       -1.1626527958        0.9654278021
 C       -16.2604152071        0.1108201045       -1.2824324629
 C       -13.3413216412        5.9276469608        2.3252272813
 C       -13.1429191236        6.5867543207       -0.2020313306
 C        -6.2116912636        5.5718694964        3.5746940615
 C        -6.8082109750        7.5681172180        4.9116303855
 C        -4.7105554776       11.2011244033       -0.9244955223
 C        -2.3526625535       10.0755650468       -1.4951495147
 H        -0.6069564252       12.1124319989        0.2000508668
 H        -0.8654906926       10.3274154713        0.6824105616
 H        -0.9483111522       11.6740715469        1.8621305467
 H        -5.7040805972        9.7063269227        0.7693558566
 H        -4.6512187878       10.2257648584        2.0845629793
 H        -4.4009847757        7.8653649927        2.9376802688
 H        -4.6161797344        7.3194159931        1.4517641045
 H        -8.9275343059        4.6747738678        1.9998375193
 H        -8.3120890858        6.0588832250        0.9192757587
 H       -10.3391885774        6.8987046331        0.5442906561
 H       -10.8180115302        6.8489974705        2.1868046051
 H       -15.7323663509        4.4649542761        0.9580227421
 H       -14.9232442645        3.4326378716        2.1754185734
 H       -16.1975646968        2.4432670735       -0.4377393895
 H       -16.4915314024        2.2210647999        1.2630129821
 H       -14.8536169139       -2.5280906379       -1.8857189511
 H       -13.9562941652       -2.9486676110       -0.4258724661
 H       -13.1259174044       -3.2989264728       -2.9284405506
 H       -11.8664139416       -2.5893065256       -2.0243598002
 H       -10.0517685314        0.7517646676       -3.9985554366
 H        -8.9693719140       -0.1269240515       -4.8671911909
 H        -7.5968831789        0.5258709959       -2.9511494764
 H        -8.2254260721       -1.0227275326       -2.4190731508
 H        -8.3863992889       -1.4305861548        1.1664664904
 H        -9.2234359056       -0.6773639648        2.5088156590
 H        -7.4716210163       -0.3068250332        2.2792172712
 H        -6.0990952430        0.8979318310       -1.2482292504
 H        -6.8945387209       -0.5797986101       -0.8000309541
 H        -6.0951910998        0.3976133420        0.4469285651
 H        -8.8574957649        3.1300515367       -0.0680616817
 H        -7.2842370067        3.0559457712       -0.8708539787
 H        -7.4693244729        2.6475019430        0.9300897475
 H       -13.0413647702       -2.8158114056       -5.5890409449
 H       -11.6095120358       -3.4658749147       -4.7891139928
 H       -11.3541108902       -2.4472313208       -6.1645116632
 H       -11.9081143509        0.6312632201       -4.8923527411
 H       -13.0905562590       -0.1577293233       -5.8588394693
 H       -11.4115124528       -0.4205336977       -6.3364828058
 H       -16.6861289212       -0.8795851776        1.3024057294
 H       -15.0773091322       -1.2720434050        1.8505703084
 H       -15.6698074496       -2.1488552950        0.4931193514
 H       -17.1947684247        0.1705309003       -0.7231365012
 H       -16.2381065558       -0.7222184885       -1.9824110428
 H       -16.2050064933        0.9375586732       -2.0175290684
 H       -14.3818892801        6.2086611414        2.3768692868
 H       -12.7657001092        6.8128176210        2.5417949310
 H       -13.0866726158        5.2298573725        3.1215402642
 H       -12.9674120809        6.0397137572       -1.1389965852
 H       -12.2014521762        7.2235868423       -0.1007835113
 H       -14.0624536260        7.2114418362       -0.2406273082
 H        -5.1277822039        5.5612137222        3.7084423456
 H        -6.3999045702        5.0642642109        2.6466707082
 H        -6.5831403416        4.9158855388        4.3734082240
 H        -6.8186579341        8.6581207945        4.8376689167
 H        -5.8075781163        7.2241825176        5.2800028837
 H        -7.6898523672        7.1793383274        5.4316889328
 H        -5.5632617271       11.2845810148       -0.2783226914
 H        -5.1216521086       10.7288275328       -1.8160352684
 H        -4.5655937670       12.2930091111       -1.2417796625
 H        -1.9850045739       10.8003499711       -2.1918738849
 H        -2.7260517980        9.2852920457       -2.0994205905
 H        -1.5601593850        9.7977436738       -0.8242513412
 Na      -11.9904518652        1.8618369841        0.0397570270
