117

 C       -10.8308604496        8.3456749510       -7.1693010125
 C       -10.5677098111        6.8792013117       -7.3957458044
 O       -11.3794930369        6.1518254382       -7.8654323393
 C        -9.0838728357        6.2349470800       -6.9062382633
 C        -9.3397126468        5.5331705797       -5.4932788061
 O        -8.8529522786        6.0171961713       -4.4709757454
 C       -10.3138510772        4.3769310604       -5.5435128105
 C        -9.7187074519        2.9167273927       -5.4355640756
 C        -9.3486204937        2.5546795678       -3.9517130028
 O        -9.7790300027        3.2397496616       -3.0501188270
 C        -8.1425000633        1.5745215583       -3.8217969471
 C        -7.9604607955        1.1257986108       -2.2998928426
 O        -7.5780731841        1.8892175326       -1.5044244686
 C        -8.4920646158       -0.2401802689       -1.7566037609
 C        -8.3167919216       -0.3127929340       -0.2554615913
 C        -6.9295548562       -0.4663295540        0.3515076776
 O        -5.9683814912       -0.6969141254       -0.3381246911
 C        -6.7935165677       -0.4998306741        1.9069745689
 C        -6.9934674290        1.0902405733        2.3233929230
 O        -8.0781972887        1.5309833927        2.4972381887
 C        -5.8106866157        2.0613687756        2.4572516294
 C        -5.9481552353        3.3301840414        1.4148126820
 C        -7.0048548990        4.3509983937        1.8523460419
 O        -7.3442011343        4.5145661985        2.9962401157
 C        -7.6010526816        5.3732496285        0.7846446467
 C        -9.0880993694        4.7544524355        0.3253362725
 O        -9.5996879481        3.8384530558        0.9722992279
 C        -9.7334816120        5.5193947952       -0.8456519926
 C       -11.2751133734        5.3911963345       -0.8488394076
 C       -11.7849255292        6.0521800982        0.4480083563
 O       -11.2512759094        7.0839193481        0.8501479681
 C       -12.9474670570        5.4337972336        1.2297879556
 C       -12.1149869864        4.9500422324        2.6020480400
 O       -11.5665171492        3.8935078614        2.6242964783
 C       -11.9648527353        5.9964871187        3.7990376611
 C       -11.0649871071        5.5976819123        4.9117605481
 C       -11.3973497571        4.1978043722        5.4928542673
 O       -10.6519623994        3.3054049483        5.2282985118
 C       -12.7779080965        3.7742764546        6.1140279102
 C       -13.5874147241        3.1984362622        4.8886661671
 O       -14.4604109471        3.9012357900        4.4328923664
 C       -13.0962531575        1.9305364547        4.1235890879
 C       -12.5580908483        2.7047039883        7.2979082947
 C       -13.4255616958        5.0902917293        6.7227111577
 C       -14.0378778212        6.5106141186        1.5626938138
 C       -13.6578016286        4.2311884155        0.5765824329
 C        -7.7800844790        6.7625232815        1.5093340636
 C        -6.7163334552        5.5292298516       -0.4968320889
 C        -7.9676835233       -1.2993676568        2.5089972017
 C        -5.4474604780       -1.0115638208        2.4815127800
 C        -8.4457489361        0.3391528666       -4.7399166053
 C        -6.8740985999        2.3495106261       -4.2030362499
 C        -8.8666411215        5.1837453236       -8.0161021737
 C        -7.8856000064        7.2391925820       -6.8151939870
 H       -10.5424653173        8.8709068951       -8.0891498826
 H       -10.2391911134        8.8067117922       -6.3447450597
 H       -11.9044259804        8.5772108277       -6.9604765849
 H       -10.8642521847        4.4202012808       -6.4654221022
 H       -11.0286367994        4.5220711118       -4.7218227719
 H        -8.7965228662        2.7785342068       -5.9697073822
 H       -10.4596017987        2.2338649749       -5.8156629830
 H        -7.8699461492       -1.0522465152       -2.1606604197
 H        -9.5570898866       -0.2868707537       -2.0866624317
 H        -8.8316366263       -1.1883317475        0.1286761945
 H        -8.7747982497        0.6407025294        0.1289085950
 H        -4.7974325250        1.5245989974        2.4096630331
 H        -5.7817751623        2.5468698859        3.3922743385
 H        -6.2960651814        2.9054409502        0.5417934849
 H        -4.9387065691        3.6132342071        1.1460496051
 H        -9.2572323516        5.1753966708       -1.7130487209
 H        -9.3849789770        6.5214391069       -0.6759190387
 H       -11.6303254045        4.3566345350       -1.0438095792
 H       -11.4447081843        6.0675814569       -1.7044866986
 H       -13.0069117596        6.2093673169        4.0708953552
 H       -11.6021486104        6.8539288274        3.2571297837
 H       -11.2392227584        6.4096792309        5.6525876529
 H        -9.9809098695        5.6770576198        4.6448979551
 H       -13.1339237111        0.9898460827        4.7195539096
 H       -12.1124760185        1.9822189579        3.6381703112
 H       -13.8248445120        1.8405828465        3.3449064916
 H       -12.2687516888        1.7078259784        6.8073785127
 H       -13.6033525285        2.6228248004        7.7119974606
 H       -11.7919857073        3.0502967580        8.0216571184
 H       -13.8304630147        5.7250857547        5.9403227420
 H       -12.7016050361        5.5727278136        7.4164442939
 H       -14.2818443258        4.7263164284        7.3424223418
 H       -14.7540045114        6.6162874297        0.7779092358
 H       -13.6173952003        7.4434307903        1.8268944586
 H       -14.6223393786        6.1216066992        2.3685561086
 H       -14.4212310348        3.8035589561        1.2492177526
 H       -12.9780905700        3.3923545846        0.3345576301
 H       -14.0568627773        4.4611423957       -0.4167118526
 H        -8.1562101680        6.7103865364        2.5507117044
 H        -8.4861638751        7.3612162934        0.9394782563
 H        -6.8430225885        7.3312179152        1.6097139160
 H        -5.6516159967        5.7384080706       -0.1413046879
 H        -7.0147295931        6.4028264424       -1.0933517808
 H        -6.7995055180        4.6852343229       -1.1483900802
 H        -8.0257190817       -2.2522337225        2.0568978341
 H        -8.8821615654       -0.8018868670        2.4270956184
 H        -7.7557803783       -1.4946063130        3.5163689689
 H        -5.3858093632       -0.8396051690        3.5742118745
 H        -4.5534267623       -0.3556952625        2.0972973867
 H        -5.1441424625       -2.0103545260        2.2441181936
 H        -8.6153734386        0.7308900275       -5.7534721807
 H        -9.4435848251       -0.0607882703       -4.3465410461
 H        -7.6551835139       -0.4432382187       -4.8399390918
 H        -7.0732914596        3.3416303662       -3.7108317565
 H        -6.6444214853        2.4945424716       -5.2249833755
 H        -5.9907027825        1.9979791286       -3.6932841070
 H        -9.7434417578        4.5915464745       -8.3337160770
 H        -8.0905973820        4.4685145256       -7.7624268728
 H        -8.5357731248        5.7061317132       -8.9014143729
 H        -8.1312704228        8.0922654961       -6.1927771243
 H        -7.7786197846        7.5214766932       -7.8025000199
 H        -6.8772235771        6.9625528739       -6.6087627337
 Na       -9.2043678884        3.4593428650        3.3372809935
