117

 C       -10.8244437971        8.2660813969       -7.2440431584
 C       -10.4935818315        6.8169657873       -7.3589817472
 O       -11.3277932492        6.0195055401       -7.8256251799
 C        -9.1520208985        6.2175677898       -7.0531747777
 C        -9.3050408127        5.4763088187       -5.5987536772
 O        -8.7346199690        5.7835340286       -4.5521831076
 C       -10.4317167534        4.3963181986       -5.5994138694
 C        -9.8513039645        2.9461238989       -5.3843639884
 C        -9.2485024337        2.6562690679       -3.9286215390
 O        -9.7514483576        3.2180667278       -2.9601524743
 C        -8.1647086962        1.5909735159       -3.7676541556
 C        -8.0461096626        1.1150143189       -2.2727616456
 O        -7.4244997972        1.8236173243       -1.5147140702
 C        -8.5890382042       -0.2325541133       -1.7721090771
 C        -8.3477288420       -0.3673429626       -0.1938539509
 C        -6.8405758119       -0.5359324584        0.2809127165
 O        -5.8559928130       -0.6706849549       -0.3631311809
 C        -6.7863323071       -0.3477268657        1.9786119590
 C        -7.0915613827        1.0806789759        2.2689351385
 O        -8.2592709924        1.4049633347        2.4665423879
 C        -5.9133313129        2.1024339143        2.3445028404
 C        -6.0012635963        3.3598503465        1.3833369238
 C        -6.9313270348        4.3532819623        1.8298250192
 O        -7.2954407308        4.4311679824        3.0111324871
 C        -7.5469651588        5.3432814955        0.7963398913
 C        -9.0050044835        4.7619726064        0.3469790942
 O        -9.5478017155        3.8515496929        0.8808731564
 C        -9.7131921580        5.5299385796       -0.8655627961
 C       -11.3041945836        5.3516287949       -0.7824659740
 C       -11.7676067553        6.1539464120        0.4254383050
 O       -11.0802166936        7.0768173300        0.8839370178
 C       -12.9515025211        5.5208561867        1.3607284144
 C       -12.1121853316        5.1340010713        2.5996083380
 O       -11.5392873219        4.0509841432        2.5699467069
 C       -12.0087754299        6.0933636423        3.8286948496
 C       -11.1442563341        5.5443977082        5.0010926253
 C       -11.3934456846        4.1138305750        5.4883293947
 O       -10.6132483686        3.1943831840        5.2232200304
 C       -12.7175622350        3.8690721288        6.1719143983
 C       -13.5906295391        3.3018785068        4.8882231669
 O       -14.5145120813        3.9933443734        4.5124574101
 C       -13.1885298764        2.0643944369        4.1925198554
 C       -12.6606469363        2.7024997760        7.1529320236
 C       -13.4891091506        5.1529064469        6.7451963074
 C       -14.0792644914        6.5014062396        1.6427533775
 C       -13.4832196548        4.2841914287        0.6680521105
 C        -7.9274330436        6.6792819658        1.4221480109
 C        -6.7160093621        5.5937691286       -0.4886517548
 C        -7.9704255449       -1.2958451653        2.5186844938
 C        -5.4967027834       -0.9643514536        2.5221804330
 C        -8.3693774930        0.3552470430       -4.8297098827
 C        -6.8460829551        2.2615510853       -4.1279336401
 C        -8.8461526463        5.1563804433       -8.1026870841
 C        -8.0037833815        7.2376513025       -6.9451515317
 H       -10.8995357407        8.6412975582       -8.2707892597
 H       -10.0857141410        8.9279945558       -6.7237782472
 H       -11.8046530835        8.4302779469       -6.7388189142
 H       -11.0537481038        4.3350366564       -6.5406507075
 H       -11.0868929333        4.6682381954       -4.7248496096
 H        -9.0623931632        2.6190560239       -6.1718065494
 H       -10.7281617905        2.2638096794       -5.4732503088
 H        -8.1704544032       -1.0647682172       -2.3590861527
 H        -9.6306693526       -0.1126308102       -1.9331179360
 H        -8.9867279477       -1.1038287991        0.2465624810
 H        -8.6120616872        0.6318016598        0.2106722955
 H        -4.9478007658        1.6510285543        2.1733008080
 H        -5.8171995002        2.5769229463        3.3131474693
 H        -6.0469667098        3.0210841864        0.3552450145
 H        -5.0091220286        3.6885748371        1.4511259756
 H        -9.3461742481        4.8996775447       -1.6599416245
 H        -9.2682493161        6.5031881014       -1.0109612969
 H       -11.5277661545        4.3010005122       -0.7017258521
 H       -11.6165993709        5.7845370948       -1.7326514520
 H       -13.1207788773        6.1604418913        3.9932647896
 H       -11.7068130195        7.0598442019        3.3938892641
 H       -11.2257356534        6.2424911124        5.8217212818
 H       -10.0975904025        5.5837702545        4.6600880601
 H       -13.1385139246        1.2235657045        4.9435161803
 H       -12.2366142740        2.1644837269        3.7810232281
 H       -13.8885378510        1.7868489346        3.3931720146
 H       -12.5270279271        1.7399912087        6.5965583819
 H       -13.6457557540        2.7291157202        7.6840453130
 H       -11.8002541178        2.8466447384        7.8189495580
 H       -14.0829154162        5.5186926682        5.8520427869
 H       -12.8167869927        5.9132253951        7.1039101901
 H       -14.1942757295        4.8491975619        7.5228338091
 H       -14.7098879264        6.6612008077        0.7596675122
 H       -13.6054049149        7.4810921717        1.9116995883
 H       -14.7636327947        6.1764564660        2.3613610168
 H       -14.1968404561        3.6494699180        1.2567630790
 H       -12.7220993506        3.6000649439        0.3513449599
 H       -13.8720302168        4.5685214077       -0.3127896147
 H        -8.2017945893        6.4562123129        2.4681106591
 H        -8.7630508255        7.2798452136        0.9861840998
 H        -7.0504043704        7.2887442502        1.5820086889
 H        -5.6512302075        5.6626678156       -0.1385208769
 H        -6.9420613630        6.5300516746       -0.9772493834
 H        -6.8714738114        4.7931293387       -1.2471596642
 H        -8.1581199005       -2.1355490846        1.8605363275
 H        -8.9044332945       -0.7781227738        2.8078799930
 H        -7.6028778530       -1.7973382792        3.3628199717
 H        -5.4570887986       -1.0014198675        3.5943077514
 H        -4.5423229448       -0.4905395274        2.2532015295
 H        -5.3751375870       -2.0116924590        2.0244703972
 H        -8.6644068607        0.7275419887       -5.8330851438
 H        -9.2106634945       -0.2756723182       -4.4226480123
 H        -7.4788731479       -0.2147023558       -4.9178104675
 H        -6.7247836240        3.1536487891       -3.5312645310
 H        -6.7872241072        2.5139299296       -5.2120061396
 H        -6.0058332814        1.6686792853       -3.8730810958
 H        -9.7185277922        4.7815337490       -8.6209177633
 H        -8.2713372104        4.2630347861       -7.7790427225
 H        -8.2614786721        5.6461990563       -8.8652525823
 H        -8.2286433061        8.2339020394       -6.6507533888
 H        -7.5342617687        7.2080282007       -7.8991716522
 H        -7.1786965412        6.9561975357       -6.3344153712
 Na       -9.1611779775        3.4884671411        3.4837147974
