117

 C       -10.8991094923        8.1789231229       -7.3877765096
 C       -10.6016939574        6.7014429851       -7.5290627910
 O       -11.4945573834        5.9523979779       -7.7726757741
 C        -9.1999949809        6.0983597826       -7.1843498911
 C        -9.3456992075        5.3155220472       -5.7738199161
 O        -8.4371557752        5.4233684853       -4.9699289507
 C       -10.4518365262        4.3378407113       -5.4990012879
 C        -9.9266244170        2.8587536127       -5.2860747077
 C        -9.3037295692        2.6391698745       -3.8589027949
 O        -9.7281265216        3.1360272100       -2.8666312745
 C        -8.0323871838        1.5454987705       -3.7876983657
 C        -7.7827623437        1.1700458118       -2.2346441727
 O        -7.2341250991        1.9145910629       -1.4577413531
 C        -8.4981033080       -0.1610168930       -1.8225315176
 C        -8.4317951073       -0.4767268465       -0.3001474338
 C        -7.0428634818       -0.5118714458        0.3022537665
 O        -6.0194952883       -0.5930109804       -0.3199853595
 C        -6.9283579890       -0.3730238651        1.9562102727
 C        -7.1661430066        1.0859847402        2.2755610223
 O        -8.3091465916        1.4572613670        2.5090657747
 C        -6.0245235344        2.0711582606        2.2293195311
 C        -6.2019406535        3.2490649474        1.1962125369
 C        -6.9643386171        4.4118939520        1.7675889205
 O        -7.1798635068        4.5090310199        2.9658648103
 C        -7.5163354201        5.3701002388        0.8260255518
 C        -8.9498863766        4.7768756206        0.3057024212
 O        -9.4824846350        3.8334777680        0.8663324260
 C        -9.6526726702        5.3901860093       -0.8856991661
 C       -11.1424139722        5.4404963251       -0.6811871573
 C       -11.6532081626        6.2087011980        0.5911894185
 O       -11.0956653481        7.2132294014        0.9111652206
 C       -12.8149225899        5.5628351397        1.4860102792
 C       -11.9782817201        5.2199026079        2.7083661838
 O       -11.3114066288        4.2227877161        2.7231490008
 C       -12.0638417571        6.1413589187        4.0085851319
 C       -11.0840223569        5.5404836694        4.9326713645
 C       -11.4366176634        4.1969010694        5.4850230378
 O       -10.6142156275        3.2980518035        5.3933296811
 C       -12.8652085557        3.9423396441        6.1109287584
 C       -13.8545807197        3.4415046027        4.9143408851
 O       -14.6800034395        4.1916976132        4.4638344006
 C       -13.5377529937        2.0597113984        4.1863541302
 C       -12.6597202871        2.7208379602        7.1416830251
 C       -13.4134600362        5.1537332056        6.8797524211
 C       -13.8377581465        6.6739097533        1.6425115312
 C       -13.5288543930        4.2608542928        0.8806412580
 C        -7.9588710161        6.6916185811        1.5106857514
 C        -6.5785993249        5.6778103818       -0.4608741131
 C        -7.9838473800       -1.3191563666        2.5690069905
 C        -5.5205694781       -0.8214006387        2.2829316417
 C        -8.3683952145        0.3614180462       -4.6455307554
 C        -6.7547774648        2.2820501759       -4.2287793750
 C        -8.6435865885        5.0016194383       -8.1232342899
 C        -8.0134351075        7.0865497089       -6.9792992118
 H       -11.2649660863        8.6557339178       -8.2810239943
 H       -10.0591290283        8.7731673688       -7.1130896419
 H       -11.6268540742        8.2485290683       -6.6116662683
 H       -11.1828252587        4.2818531368       -6.2813669160
 H       -10.9115357781        4.6999774473       -4.5741790867
 H        -9.1950470208        2.5665652065       -5.9945341059
 H       -10.8008113633        2.1741332995       -5.4024147633
 H        -7.9706452366       -0.9298464685       -2.3921777942
 H        -9.5968348853       -0.1650994945       -1.9825202143
 H        -9.0783411150       -1.4026882202       -0.1907942678
 H        -8.9598385644        0.3151836083        0.2642701269
 H        -5.0208766438        1.5578043162        2.0774056868
 H        -6.0567234185        2.4851035973        3.2544416573
 H        -6.6449339885        2.6912616912        0.3723759706
 H        -5.1413894830        3.3945515633        0.7779177257
 H        -9.3709353919        4.7338411801       -1.7545159400
 H        -9.1088641468        6.3545054903       -1.0355640284
 H       -11.4305029330        4.3905550137       -0.5749642291
 H       -11.4982943997        5.8833738107       -1.6008666089
 H       -13.0851896810        6.1020442454        4.3224163104
 H       -11.8439497377        7.1709346708        3.7521488585
 H       -10.9523881747        6.2842238922        5.7280147813
 H       -10.1503807850        5.4236638800        4.4081935564
 H       -13.5939233141        1.1686222828        4.7686714661
 H       -12.4740297352        2.1315391261        3.8018946523
 H       -14.1721432815        1.9194224741        3.3360061664
 H       -11.9117635043        2.0932055441        6.7393830378
 H       -13.5710344550        2.3040164294        7.4404195067
 H       -12.2116959405        3.1699328977        7.9847313125
 H       -14.0039444452        5.7868079612        6.2945450726
 H       -12.5062545499        5.7005688899        7.1609765175
 H       -13.9358510980        4.7499345281        7.7406369259
 H       -14.2256288367        6.8922510677        0.6285657400
 H       -13.3678011503        7.5963494920        1.9562648280
 H       -14.7767721146        6.4053672370        2.2411910999
 H       -14.4344855810        4.1318127850        1.3913844265
 H       -13.0049993142        3.3100819866        0.9891635664
 H       -13.6450640951        4.3233364905       -0.1853039130
 H        -8.5841308649        6.4998816047        2.3791625249
 H        -8.5490062373        7.3113237951        0.8731449206
 H        -7.1151715889        7.2598277435        1.9229783122
 H        -5.6444814852        6.1209586469       -0.1460763806
 H        -7.0487499929        6.4133148426       -1.1352363380
 H        -6.3960037733        4.7975161255       -1.0515051481
 H        -7.8649857006       -2.3463110990        2.1193803935
 H        -9.0164190000       -0.9402429188        2.4353129472
 H        -7.8272263723       -1.4999552647        3.6904251233
 H        -5.1555434449       -0.4146109965        3.2147015449
 H        -4.7890500781       -0.4997232803        1.5371753477
 H        -5.3867947317       -1.8065097643        2.1943155781
 H        -8.3167974485        0.5447550903       -5.6747976605
 H        -9.3317242644       -0.0116135986       -4.4320068654
 H        -7.6455920388       -0.3812347944       -4.3104583725
 H        -6.3411568321        2.7810905277       -3.3309455176
 H        -6.8227368324        2.9267709567       -5.0657374557
 H        -5.9392190997        1.5592084916       -4.4410854088
 H        -9.4561599156        4.3090336867       -8.3963676952
 H        -7.9120820995        4.3905772483       -7.6160277108
 H        -8.1579658862        5.3368737637       -9.0477726446
 H        -8.2682186071        8.0855118722       -6.5218592413
 H        -7.3478500107        7.2690062289       -7.8465500080
 H        -7.3127969944        6.6369449287       -6.2257249991
 Na       -9.3002888755        3.3551136191        3.3568909078
