117

 C       -10.8469999320        7.8111243862       -7.4096928483
 C       -10.5708407551        6.2980902599       -7.5423968726
 O       -11.5436034826        5.5192734864       -7.6045785082
 C        -9.1288770262        5.7047555228       -7.4385620841
 C        -9.1506130455        4.8808381827       -5.9438781899
 O        -8.1734477924        4.9886856036       -5.2511032212
 C       -10.4089714566        4.1341311955       -5.4692056729
 C       -10.0894116701        2.6045284790       -5.3906572522
 C        -9.2484147376        2.3173215686       -4.0899343138
 O        -9.6854760032        2.8066511267       -3.0471841460
 C        -7.9729678232        1.5488245636       -3.8880439616
 C        -7.9235722181        1.2088216559       -2.3593564732
 O        -7.2661026078        1.9151819428       -1.6290630602
 C        -8.6867444505       -0.0221412539       -1.6883343250
 C        -8.5294982494        0.0041571281       -0.2070311845
 C        -7.0479806979       -0.3958751600        0.3237242909
 O        -6.1418097361       -0.7147483716       -0.4243821382
 C        -6.9253981635       -0.5135646035        1.9879600414
 C        -7.2653920541        0.9841510131        2.4391893160
 O        -8.3421450781        1.2992117147        2.8599799590
 C        -6.0069207953        2.0131461910        2.2908263633
 C        -6.3238553957        3.1591454633        1.3604799668
 C        -7.0095681342        4.3755845033        1.8074992389
 O        -7.2734285223        4.5373890870        2.9758165506
 C        -7.5012880540        5.5543773932        0.8017442637
 C        -8.9024719084        5.0382897121        0.4678561353
 O        -9.4754305140        4.1019534268        1.0457282004
 C        -9.6456467269        5.5381510958       -0.7985089967
 C       -11.1571735727        5.5136009264       -0.7022489191
 C       -11.6384219649        6.3402121493        0.5447500697
 O       -11.0899297054        7.4250790273        0.8129237758
 C       -12.8152100506        5.8679408636        1.4508610464
 C       -12.1057935657        5.3390484596        2.7474739327
 O       -11.6350294135        4.1987119646        2.7228775781
 C       -11.7697659021        6.2039281770        3.9723165907
 C       -10.9941864596        5.6558567522        5.1198806423
 C       -11.5396605316        4.2651175691        5.4823319256
 O       -10.8084781572        3.3135330653        5.2905277006
 C       -12.8609542578        3.9159387509        6.2759823771
 C       -13.8455143920        3.7746761755        5.0640911369
 O       -14.1616045490        4.7596248849        4.4047577448
 C       -14.0775030150        2.4042207077        4.4697552208
 C       -12.5463898025        2.6217412715        7.0424111530
 C       -13.2828938693        4.9966843543        7.3333567712
 C       -13.6391588245        7.1684925925        1.7856195250
 C       -13.6755293578        4.7626577825        0.8142411524
 C        -7.7703002761        6.7761237991        1.5514962163
 C        -6.5138986766        5.7982204845       -0.3231112732
 C        -8.0031268594       -1.5212218084        2.3237847966
 C        -5.5810006011       -1.0471327192        2.4255896994
 C        -7.8625938849        0.2388259904       -4.7783578048
 C        -6.8164933225        2.4567758466       -4.2044809928
 C        -8.7236792522        4.6985805606       -8.4483310056
 C        -8.0599391822        6.8587357233       -7.3184435816
 H       -11.8606315679        8.0695605720       -7.5966737004
 H       -10.2511511545        8.3420805092       -8.1346430608
 H       -10.6743794632        8.1282361804       -6.3811588420
 H       -11.2651788099        4.4028532928       -6.0744226268
 H       -10.5433745034        4.3923996348       -4.4156203970
 H        -9.5298804972        2.2340581095       -6.2692135939
 H       -10.9152165467        1.9430010953       -5.2674879422
 H        -8.2497492329       -0.9889604128       -1.9937877858
 H        -9.7498836048        0.1115065690       -1.9345649824
 H        -9.2067155767       -0.7256792853        0.2586800023
 H        -8.9394172683        0.9170198046        0.3307053925
 H        -5.1711065024        1.3973706862        1.8507898642
 H        -5.7802029058        2.4604009041        3.2848010606
 H        -6.8881762487        2.7124715251        0.4931375316
 H        -5.3288327999        3.5579510293        0.9305256721
 H        -9.3391282026        4.8010517789       -1.5856436935
 H        -9.1707092742        6.5036936175       -1.1579367844
 H       -11.5150711036        4.4838107701       -0.6573509982
 H       -11.4768392813        5.9740369980       -1.6450042908
 H       -12.6972790709        6.6706776460        4.2900934490
 H       -11.2021389498        6.9920395141        3.5410354119
 H       -11.0867354437        6.3849200015        5.9210755978
 H        -9.9300233086        5.5666371513        4.8715395372
 H       -14.7693665675        1.8817530047        5.2047633465
 H       -13.2175307483        1.8305770077        4.4646194980
 H       -14.5580557804        2.3760834397        3.4893555518
 H       -12.3580955081        1.8340189700        6.3607782267
 H       -13.3537900077        2.4669126189        7.7248384817
 H       -11.7047844353        2.7928464130        7.6217896858
 H       -13.1787833728        6.0303693425        6.9292638672
 H       -12.6160392616        4.9081239946        8.1608992761
 H       -14.2922415233        4.7661601858        7.6387039026
 H       -14.0659266939        7.5643732764        0.8208166149
 H       -12.9962802761        8.0426954743        2.1623521416
 H       -14.4184464354        7.0075064062        2.5058620039
 H       -14.6035902370        4.5468400154        1.3873645448
 H       -13.1169759929        3.8430152774        0.7585876906
 H       -14.0478709907        5.0669935261       -0.1626526149
 H        -8.3544612221        6.6031651332        2.4467138695
 H        -8.3839632068        7.4979160865        0.9784867503
 H        -6.8762649574        7.3194790179        1.7610358261
 H        -5.5076181186        5.7215534331        0.1729099834
 H        -6.5256781659        6.8050399562       -0.6594098477
 H        -6.4112748840        5.1244555485       -1.1479899669
 H        -8.1370703211       -2.2394734222        1.4485242886
 H        -8.9948950831       -0.9618403165        2.5515540862
 H        -7.7424133932       -2.0865297928        3.2390773739
 H        -5.5822759654       -1.4560378167        3.3853165143
 H        -4.8407404502       -0.3031466445        2.3921238606
 H        -5.1590007737       -1.8845358452        1.7774832309
 H        -8.0704875382        0.6684922326       -5.7352868044
 H        -8.6103798033       -0.5361071698       -4.5584863406
 H        -6.9092305004       -0.1514542693       -4.8651217431
 H        -6.9278019112        3.4506116749       -3.7481482457
 H        -6.8333657100        2.6922793825       -5.2936101726
 H        -5.8797519215        2.0300661916       -3.9210247560
 H        -9.4898920707        4.0436288630       -8.8510915580
 H        -7.8980851144        4.0716853513       -8.0614047951
 H        -8.2841656406        5.1899525871       -9.2928899515
 H        -8.3158397937        7.8565834565       -6.9022743789
 H        -7.8657927520        7.1361990517       -8.3494438313
 H        -7.1474726796        6.4611818988       -6.8241702057
 Na       -9.3796693078        3.4560515440        3.3217959467
