117

 C       -10.8454681996        7.6974120997       -7.4083318649
 C       -10.6761129702        6.2351908126       -7.5852513616
 O       -11.5288846257        5.4895850641       -7.9494282448
 C        -9.2020489188        5.6186345790       -7.3728258906
 C        -9.0940926101        4.7919183316       -6.0355632314
 O        -8.1212424915        4.9264770548       -5.2921462784
 C       -10.3073625694        3.8353164300       -5.7618634621
 C        -9.7814422514        2.4481436038       -5.4924772180
 C        -9.2879456976        2.3199277046       -3.9651332055
 O        -9.8953835371        2.7691675897       -3.0279548437
 C        -7.9037044176        1.5344097938       -3.7929372476
 C        -7.7124372881        1.2471598307       -2.2937362267
 O        -7.0885861467        2.0269759871       -1.6298805261
 C        -8.5240349061        0.1441040563       -1.7291760218
 C        -8.5507340151        0.1079284195       -0.2084353887
 C        -7.1410523026       -0.3913428123        0.3488973645
 O        -6.2835562154       -0.7846239777       -0.3750680583
 C        -7.0033499824       -0.3895946584        1.9246765080
 C        -7.1920122764        1.0367748793        2.4148097933
 O        -8.3023925152        1.3752039983        2.8656575286
 C        -6.0838460749        2.0867672278        2.5021347437
 C        -6.3600774797        3.1555462208        1.3564228282
 C        -7.0775387794        4.3457833260        1.9084484378
 O        -7.2469833155        4.3721251237        3.1203454166
 C        -7.5596793758        5.3843609214        0.9095938226
 C        -9.0280817010        5.0237066033        0.4642928502
 O        -9.6042139328        4.2235444123        1.1467620000
 C        -9.6121290601        5.5462971558       -0.7496117852
 C       -11.1506410032        5.6181891901       -0.6362991637
 C       -11.5206589935        6.5324876270        0.5578824207
 O       -10.9091492713        7.5281505670        0.8790909044
 C       -12.8224749524        6.0862497347        1.4016930234
 C       -12.0917638152        5.3926124408        2.6634341277
 O       -11.7112778444        4.2652884991        2.5917420509
 C       -11.7621025302        6.2801625056        3.8861267072
 C       -10.9250140024        5.5267753257        5.0030642211
 C       -11.3542785120        4.1122066649        5.4518425261
 O       -10.6235923611        3.1601423219        5.2323957718
 C       -12.6352122466        3.9467541518        6.1969366960
 C       -13.6710307154        3.8642449857        5.0498010867
 O       -14.1188771263        4.9233313999        4.6994538724
 C       -14.3844996574        2.5922533574        4.6649350490
 C       -12.6980022388        2.5808053125        7.0326058687
 C       -13.0233259495        5.1277878042        7.0848168635
 C       -13.6935640116        7.3156082896        1.7807352653
 C       -13.7302931974        5.0263922264        0.7917389089
 C        -7.7379543717        6.7568614008        1.6114188486
 C        -6.6711978312        5.4883456754       -0.3362970852
 C        -8.2071668365       -1.3376987932        2.5353536595
 C        -5.6435464549       -1.0041804135        2.3132398290
 C        -7.8726249752        0.2717413749       -4.6465893068
 C        -6.7682464317        2.4948247118       -4.3602826283
 C        -9.0666920750        4.5088067711       -8.4563373187
 C        -7.9842472501        6.5737639026       -7.4380215828
 H       -11.9143052085        7.8614834769       -7.2587970139
 H       -10.4889501350        8.2399005864       -8.2835996552
 H       -10.3676059471        8.0613695348       -6.5170434939
 H       -10.9253169512        3.7787567661       -6.6410163379
 H       -10.8882356136        4.2348377923       -4.9423075442
 H        -8.9898309109        2.2626641324       -6.1604677206
 H       -10.5334083647        1.6365382270       -5.6621104725
 H        -7.9662251397       -0.7364534207       -2.0851781806
 H        -9.4988066705        0.2751161719       -2.2421972319
 H        -9.2585669424       -0.5070563475        0.3857644343
 H        -8.8211079940        1.0318767349        0.2483797878
 H        -5.1650934250        1.5780760974        2.2935388106
 H        -6.1756362927        2.4614022137        3.5268831386
 H        -6.9513273980        2.6975708482        0.5847441915
 H        -5.4498450021        3.4278524650        0.8821411700
 H        -9.2793181122        4.8113866191       -1.4589473429
 H        -9.1482545992        6.4202223348       -1.0995696038
 H       -11.6039901847        4.6255496421       -0.4483914240
 H       -11.5262761675        6.0044638369       -1.6017034825
 H       -12.7667026662        6.4278852423        4.2976775846
 H       -11.4054396044        7.2878924330        3.5429547089
 H       -11.0397220975        6.1912098750        5.9029177845
 H        -9.8312968974        5.5452301792        4.8218151699
 H       -14.7937825488        2.0591201410        5.4818719153
 H       -13.7061174459        1.8593822500        4.1040857116
 H       -15.1698346502        2.8786177550        3.9875049438
 H       -12.2736327439        1.7453537210        6.4279835577
 H       -13.7439040665        2.3203066257        7.2763256407
 H       -12.1221932396        2.7797746389        7.9621905993
 H       -13.5340826640        5.8635953153        6.5053717466
 H       -12.0656974007        5.5432052100        7.4819803074
 H       -13.6505489042        4.8164014143        7.9373893136
 H       -14.1886398702        7.6956451439        0.9161340083
 H       -13.1247315788        8.0787997599        2.2097204176
 H       -14.4607497201        7.0684653934        2.5473042112
 H       -14.7200115923        5.0081286974        1.1520822184
 H       -13.2311055730        4.0553244661        0.9447823870
 H       -13.9393640486        5.2609064818       -0.2432666003
 H        -8.0758389217        6.6482107690        2.6320986303
 H        -8.3551664219        7.4906074108        1.1681729664
 H        -6.7477703635        7.2265136400        1.6503945286
 H        -5.6653322075        5.8187488789       -0.1744188660
 H        -7.0958999105        6.2587626952       -1.0051427859
 H        -6.4857779370        4.5697734146       -0.8932833383
 H        -8.4438010437       -2.1731580019        1.9176021003
 H        -9.0751039525       -0.7976324419        2.7540675406
 H        -7.8045953404       -1.6708096372        3.4841235281
 H        -5.6783093687       -1.6960592902        3.2060397783
 H        -4.8758813851       -0.1611219265        2.4625424454
 H        -5.2777645530       -1.6699790290        1.5785049401
 H        -7.7139413384        0.3363611617       -5.7271710863
 H        -8.6929058655       -0.3512635684       -4.3236466676
 H        -6.8945420302       -0.2276108159       -4.3143482746
 H        -6.7442462528        3.4374845540       -3.8025797315
 H        -6.8856143511        2.8005219218       -5.3601295459
 H        -5.8011175713        1.9871185805       -4.2037040101
 H       -10.0382839421        4.1806756435       -8.8457988373
 H        -8.5745820078        3.6325193559       -8.0854369369
 H        -8.5073970649        4.8510368073       -9.3448648709
 H        -7.9328823154        7.3271561715       -6.6513116311
 H        -8.0026213829        7.1825131795       -8.3584485299
 H        -7.0947454719        5.9205088046       -7.3675780521
 Na       -9.4448379536        3.2981560130        3.4257812797
