117

 C       -10.9476945295        7.7400941474       -7.3800121586
 C       -10.6229739653        6.2603847687       -7.6622386897
 O       -11.5241191305        5.5298884354       -8.0554964911
 C        -9.2113889734        5.5383817275       -7.4599542908
 C        -9.2051093758        4.7833992431       -6.0907939768
 O        -8.2485581039        4.9287780705       -5.3381362919
 C       -10.2346574917        3.7309209469       -5.8952963236
 C        -9.6551997644        2.3524996726       -5.4680155494
 C        -9.1500254343        2.3031521957       -4.0194997070
 O        -9.8847607089        2.6421511131       -3.0812213874
 C        -7.8441106393        1.5958650850       -3.7462708583
 C        -7.7152459532        1.4515317584       -2.2433487738
 O        -6.9690742848        2.0783088092       -1.5701190248
 C        -8.4614319422        0.1406497918       -1.7344803144
 C        -8.4991764179        0.1645318690       -0.2068762957
 C        -7.2230459301       -0.4029644347        0.3984179338
 O        -6.3072912880       -0.8043010255       -0.3174577551
 C        -7.0551698422       -0.4094927064        2.0115656538
 C        -7.2936825795        1.0132275283        2.5408197366
 O        -8.4108531783        1.3762741618        2.8384476388
 C        -6.0298017980        2.0486403324        2.4622499954
 C        -6.2813444214        3.0940833565        1.3827555942
 C        -7.0921105900        4.2920740119        1.9702362379
 O        -7.3509969358        4.4836917070        3.1306384602
 C        -7.5510337021        5.3747597096        0.9507247078
 C        -9.0689500262        4.9495879437        0.4958909636
 O        -9.7159327837        4.1513300480        1.1723865996
 C        -9.6409590864        5.6090456387       -0.7758006842
 C       -11.1730708182        5.6659311552       -0.6300622805
 C       -11.5778450074        6.5694321618        0.5331742655
 O       -10.8117762467        7.4988397857        0.8698818365
 C       -12.7730108002        6.1715458717        1.4447467902
 C       -12.0895458788        5.4628589902        2.6861351006
 O       -11.8250633939        4.2751031002        2.6068167294
 C       -11.7043699428        6.2545317696        3.9455414284
 C       -10.8239546883        5.5046159713        4.8861051806
 C       -11.2948660081        4.1040587470        5.3969971746
 O       -10.5544594649        3.1491606495        5.2909118809
 C       -12.6491275537        3.9906348349        6.1979072308
 C       -13.9677063158        3.9109954030        5.1419624327
 O       -14.2648576138        4.9933244104        4.6645240386
 C       -14.5215386548        2.5969519170        4.6637279431
 C       -12.6686357816        2.6218956002        7.0756706974
 C       -12.8151052445        5.1754316898        7.1547202549
 C       -13.6323309814        7.3620122566        1.8917335989
 C       -13.6851720693        5.1282625416        0.6959538404
 C        -7.6078964301        6.7715641495        1.6651410166
 C        -6.7378724403        5.4031722809       -0.3209079340
 C        -8.1741284744       -1.1836716826        2.6479836953
 C        -5.6925150424       -1.0669447563        2.1990425242
 C        -7.9496172953        0.2414009984       -4.5330650744
 C        -6.7101350258        2.5269564657       -4.3500941696
 C        -9.1377011988        4.3751677612       -8.4986103289
 C        -7.9227922631        6.4170524227       -7.5270824987
 H       -12.0293144379        7.8035199072       -7.2996354760
 H       -10.5717617903        8.3648204670       -8.2219882377
 H       -10.5388412957        8.1551401038       -6.4194084768
 H       -10.7912356654        3.5468296486       -6.8205751017
 H       -10.9804083881        4.1655491409       -5.1466090385
 H        -8.8876318769        1.9417346763       -6.1891101645
 H       -10.5427282122        1.6069231528       -5.4600132450
 H        -7.9483306055       -0.6930501772       -2.1150373947
 H        -9.4793343871        0.2582257753       -2.1459565704
 H        -9.2519155538       -0.3760183408        0.3352899579
 H        -8.7251388663        1.1308115719        0.1741298903
 H        -5.0973062892        1.5263124421        2.2110949866
 H        -6.0124895437        2.5027478645        3.3969854044
 H        -6.6411308629        2.6737318864        0.4491888389
 H        -5.2500498918        3.5243427039        1.1321274163
 H        -9.3203201922        4.9873753826       -1.6242836265
 H        -9.1211615894        6.5679286671       -1.0141992495
 H       -11.5380096634        4.6777166442       -0.3649876541
 H       -11.6419843289        5.9366492337       -1.5670877252
 H       -12.6304611357        6.7097945183        4.3641167409
 H       -11.1120109854        7.1123211265        3.5001590143
 H       -10.4310496225        6.1751419303        5.6574918653
 H        -9.9347901807        5.3186152202        4.2868075073
 H       -14.8424255250        1.8787658724        5.4534155063
 H       -13.6989975455        2.1476990089        4.1543834164
 H       -15.3176469319        2.7296953138        3.9359306995
 H       -12.2507315120        1.7790045739        6.4263808001
 H       -13.7368552277        2.3013739268        7.3032250203
 H       -12.0673518866        2.7947082672        7.9834485538
 H       -13.2959310260        5.9633370407        6.5806959285
 H       -11.8439526416        5.5032098554        7.5786364773
 H       -13.5151567823        4.9345847619        7.9850252773
 H       -14.2210871167        7.6792771816        1.0508973292
 H       -13.0252313699        8.1709650506        2.2644282431
 H       -14.3003688226        7.1491529007        2.6713127019
 H       -14.6328313268        5.0239887013        1.2195663016
 H       -13.1829842773        4.1526874481        0.6744827273
 H       -14.0795930657        5.4950528027       -0.2478366074
 H        -8.0190338307        6.6541029850        2.6775639153
 H        -8.2254608450        7.5303793669        1.1767015342
 H        -6.6416491422        7.2523932596        1.7881054927
 H        -5.6485492736        5.6791404783       -0.2668599479
 H        -7.1191955436        5.9626875897       -1.1705699624
 H        -6.6390995541        4.3921693802       -0.6519892853
 H        -8.2127297223       -2.1611379098        2.2672680640
 H        -9.0942902151       -0.7168676896        2.3990178495
 H        -8.0545928429       -1.1789097010        3.6668110743
 H        -5.5285810915       -1.6611747215        3.0353292699
 H        -4.9378588486       -0.2709517209        2.0597025713
 H        -5.5362369270       -1.8463288857        1.3998360718
 H        -7.7451954267        0.1857216297       -5.5958442238
 H        -8.9051006330       -0.2341337243       -4.1429669770
 H        -7.1271383132       -0.3567392641       -4.1235237576
 H        -6.5547670513        3.4555371479       -3.7477516469
 H        -6.9016995797        2.8870723553       -5.3334315219
 H        -5.8007653780        1.9602979111       -4.3137397950
 H       -10.1258041988        3.9169324787       -8.7184646955
 H        -8.4863704067        3.5641102091       -8.1835638281
 H        -8.8124340653        4.7418159203       -9.4550705754
 H        -7.7710245395        6.6619721074       -6.4630576517
 H        -7.9483310055        7.3440098760       -8.0033055020
 H        -7.0744661540        5.8023535054       -7.8195009914
 Na       -9.3599078166        3.2566767050        3.3216094002
