117

 C       -10.8285063781        7.6840235724       -7.3362264342
 C       -10.5973228198        6.2180355602       -7.7699554053
 O       -11.5867950449        5.5889881830       -8.1294376913
 C        -9.1894300972        5.4357863677       -7.5415190691
 C        -9.2595754055        4.6915688737       -6.1527090350
 O        -8.4637291259        4.9377438352       -5.2968355309
 C       -10.3785473078        3.6573899027       -5.9224476473
 C        -9.6985669234        2.2713763987       -5.5322254430
 C        -9.2361666335        2.3047581187       -4.0822164185
 O        -9.9022138111        2.6299084061       -3.1353391138
 C        -7.7047142622        1.5693552589       -3.7465115343
 C        -7.5277600407        1.4196954403       -2.2844998695
 O        -6.9380830021        2.1631786023       -1.4542587142
 C        -8.4349462027        0.2579380724       -1.6244941932
 C        -8.5797050513        0.2553452547       -0.1265314434
 C        -7.2886543662       -0.3667158635        0.4426029916
 O        -6.3960060377       -0.8065521064       -0.2489041769
 C        -7.0715584129       -0.4430312033        1.9794367652
 C        -7.2185823598        0.9889891905        2.4810133795
 O        -8.3341145061        1.3508891902        2.7962832552
 C        -6.0406887192        2.0117136776        2.5299780502
 C        -6.2064103906        3.1589059610        1.5626469565
 C        -7.0352586482        4.3458638006        1.9782799877
 O        -7.4287476871        4.4292486613        3.1437702070
 C        -7.6143285406        5.3252711916        0.8829168832
 C        -9.0613101298        4.9367918749        0.5071873028
 O        -9.7575514603        4.1106864136        1.1218399502
 C        -9.6944955355        5.6139592324       -0.7246768317
 C       -11.1910553089        5.6704654108       -0.6303205356
 C       -11.5347343049        6.5528959497        0.6133594583
 O       -10.8328081795        7.4867427538        0.8864184112
 C       -12.7727751644        6.1942521403        1.5082842966
 C       -12.1209861518        5.4609357107        2.6724059048
 O       -11.9141812998        4.2403941791        2.6873745921
 C       -11.6304702755        6.2554535386        3.9140683984
 C       -10.7652112100        5.4175517026        4.7880295092
 C       -11.3342350170        4.1119710993        5.3440799679
 O       -10.6035555322        3.1143025749        5.3192898813
 C       -12.7114184156        4.0330827971        6.1823382245
 C       -13.9622517103        4.0207955316        5.1276948748
 O       -14.4662542751        5.0279129385        4.6780835768
 C       -14.4987622290        2.6960034036        4.7306503689
 C       -12.5682799523        2.7134837023        7.0379801769
 C       -12.6979455833        5.1959331746        7.2024275526
 C       -13.5069364933        7.4538055181        1.9641007528
 C       -13.6962807979        5.2471185169        0.6855208786
 C        -7.5134329274        6.7362701380        1.5882082974
 C        -6.7112224369        5.4162269763       -0.3652371012
 C        -8.2219618431       -1.3090009540        2.7120181779
 C        -5.6812266442       -1.1311827159        2.3044073522
 C        -7.8386844485        0.2100795432       -4.4604174072
 C        -6.5655045258        2.4767159489       -4.3346062611
 C        -9.0794432777        4.3699412665       -8.6797124700
 C        -7.9839925689        6.3937512885       -7.6992735644
 H       -11.9140011054        7.8713675793       -7.2231979329
 H       -10.3467035166        8.3539760576       -8.0727438616
 H       -10.3463730311        7.9209216009       -6.3597559451
 H       -11.1065981755        3.4831546962       -6.7625857891
 H       -10.9635995709        4.1118783639       -5.0635720242
 H        -8.7403653521        2.0312767360       -6.1587710603
 H       -10.4045674280        1.4284681010       -5.7032435505
 H        -8.0867009154       -0.7291001431       -1.8920538268
 H        -9.4218267687        0.4407023546       -2.0164362642
 H        -9.3416691065       -0.4090788750        0.2083777500
 H        -8.9367195884        1.1671088455        0.4060030344
 H        -5.1191837353        1.5057318381        2.2400640137
 H        -6.0634550782        2.3064184762        3.5767235090
 H        -6.6702730492        2.7967306402        0.5698227074
 H        -5.1348577835        3.4310467098        1.2851044847
 H        -9.2750034583        5.2832943928       -1.7285565462
 H        -9.3038843305        6.6971984466       -0.7406649868
 H       -11.7236991550        4.7412780523       -0.7008443000
 H       -11.5302692776        6.2736117934       -1.4653098462
 H       -12.5470699786        6.5607248697        4.4693874924
 H       -11.1363677345        7.1724836051        3.5993012317
 H       -10.4266972552        6.0241572778        5.6056386287
 H        -9.8220494375        5.2340834512        4.2841798520
 H       -14.8353726279        2.1887434207        5.6591279315
 H       -13.8740238012        2.0499501493        4.1951743608
 H       -15.4022944354        2.8932461145        4.1381796072
 H       -12.3695111015        1.8705467788        6.3679211786
 H       -13.5258787917        2.4545195809        7.5381639785
 H       -11.7263870573        2.9052669313        7.7287943920
 H       -12.8780510114        6.1112065596        6.5593381314
 H       -11.7828195041        5.2263003766        7.7654406386
 H       -13.5511569797        5.1840694526        7.8814073176
 H       -14.1517057359        7.8053807847        1.1609796693
 H       -12.7818204711        8.2194742690        2.2971674038
 H       -14.1475412283        7.3281618531        2.7977245082
 H       -14.6163736442        5.0709919460        1.2975908128
 H       -13.2087395519        4.3094227970        0.4954698426
 H       -14.1695187193        5.7397343672       -0.1643724956
 H        -8.0385297296        6.6883481766        2.5532574584
 H        -8.0317411150        7.5473388934        1.0146797716
 H        -6.5251590350        7.1170435332        1.8156818651
 H        -5.6491559285        5.4512384268       -0.0846610316
 H        -6.8732096391        6.1567061316       -1.1235438736
 H        -6.6880524223        4.4370264973       -0.9135386960
 H        -7.9256663584       -2.3303328810        2.6067853230
 H        -9.1350292161       -1.2422578676        2.1343870163
 H        -8.3733579461       -1.0337854807        3.7417162181
 H        -5.5399572162       -1.2004805701        3.3654568644
 H        -4.8952416435       -0.6560747996        1.8686228859
 H        -5.7078569325       -2.2191080318        2.0824077770
 H        -7.5944848806        0.2511367235       -5.5293156094
 H        -8.8637523658       -0.1229501486       -4.2237822562
 H        -7.1579184161       -0.5242822918       -4.0949835843
 H        -6.4058981245        3.3188667570       -3.7005077774
 H        -6.7314648156        2.9339246662       -5.3513048818
 H        -5.6591904917        1.8990190554       -4.3298806147
 H        -9.9584873068        3.7464583192       -8.7018461855
 H        -8.2503592549        3.6622025446       -8.4678195775
 H        -8.9990843813        4.7631527098       -9.6826868964
 H        -7.6547036213        6.5247571090       -6.6880609664
 H        -8.2080963521        7.4010098355       -8.0394392814
 H        -7.1933359284        5.9737099786       -8.2991450318
 Na       -9.3571377501        3.3035361347        3.2402627738
