117

 C       -10.5564867507        7.2794285959       -7.1391175931
 C       -10.6788574611        6.0753436143       -8.1026716726
 O       -11.6271145166        5.8864033257       -8.8082755934
 C        -9.5086262311        4.9743122497       -8.0091745823
 C        -9.5996197926        4.3587680275       -6.5905118325
 O        -9.1396132521        4.9465389157       -5.6675372104
 C       -10.2097427515        2.9052242553       -6.2869864669
 C        -9.0561850723        1.9960810890       -5.8113345311
 C        -8.8400132265        2.0948390979       -4.2596019523
 O        -9.6757748199        2.5915316475       -3.5740082501
 C        -7.4892582018        1.6339287903       -3.5869655820
 C        -7.6320875412        1.4979626274       -2.1223446071
 O        -7.0639664620        2.1871251674       -1.2895315644
 C        -8.5595142000        0.3478326414       -1.5829932235
 C        -8.6883427071        0.3174003065        0.0067163982
 C        -7.3936054997       -0.4138336867        0.6833282092
 O        -6.5275429189       -0.8604721739        0.0435330962
 C        -7.2274123319       -0.4458763252        2.2609103712
 C        -7.4199280515        0.9812645871        2.7642804635
 O        -8.4687829054        1.3575714178        3.2119871656
 C        -6.2428967251        2.0128558461        2.7071499273
 C        -6.2546224010        3.0981168614        1.6070790259
 C        -7.2957330897        4.1102574775        1.7912212200
 O        -7.9061421224        4.2461123271        2.8417292503
 C        -7.5128149112        5.1773097541        0.6520830168
 C        -8.9180364222        4.8040570424        0.1199686603
 O        -9.4493861074        3.7502581521        0.5492014157
 C        -9.5239625516        5.7921776964       -0.8396001050
 C       -10.9979551998        6.0567391346       -0.6027682306
 C       -11.2273656227        6.7652656982        0.7310796569
 O       -10.4812135984        7.5263513888        1.2620851807
 C       -12.6167335538        6.4512259077        1.5702175825
 C       -12.0144561509        5.6044372478        2.6848624971
 O       -11.7994297251        4.4007217969        2.4540991037
 C       -11.6314560449        6.2600384230        4.0225078613
 C       -10.6974525177        5.3890501457        4.9600634086
 C       -11.3914589450        4.1981785502        5.5462685786
 O       -11.1465295568        3.0917119499        5.0625531022
 C       -12.5255152857        4.4007240214        6.5889790083
 C       -13.8316053706        4.4897252004        5.5959099670
 O       -14.2966395447        5.5560561861        5.3133272273
 C       -14.4370433962        3.2592346520        4.9971231482
 C       -12.7789476062        3.1190922688        7.4822364396
 C       -12.3908714013        5.6270175114        7.4879939047
 C       -13.1679903172        7.8240059750        2.0731038551
 C       -13.7042565119        5.6048105256        0.8434746056
 C        -7.4070453406        6.6821964096        1.2910890012
 C        -6.5751710365        5.1530364734       -0.5250447711
 C        -8.3257903592       -1.4644803019        2.8247400000
 C        -5.8232426198       -1.0708372670        2.5011697954
 C        -7.3077163399        0.2466941219       -4.2515896103
 C        -6.2534207181        2.5859263492       -3.9279870153
 C        -9.5261237131        3.9252536820       -9.1195575551
 C        -8.0823862227        5.7776165413       -8.0684630189
 H       -11.4883551059        7.5935265572       -6.7034718225
 H       -10.0738642486        8.1215819447       -7.6090841883
 H        -9.8539261379        6.9479763615       -6.3847774343
 H       -10.6484031997        2.4402810787       -7.1186206920
 H       -10.9936595442        3.0203710462       -5.6064603839
 H        -8.1891048274        2.3302442996       -6.3562369707
 H        -9.2047982950        1.0140640642       -6.0642531501
 H        -8.2982992429       -0.6494946608       -1.9829879729
 H        -9.5661862143        0.6192084482       -2.0622504142
 H        -9.4513582009       -0.4167559558        0.3750075049
 H        -8.8436928892        1.3096323314        0.5085584236
 H        -5.2351144747        1.4748300284        2.7110131883
 H        -6.2456418388        2.4187063174        3.7164326771
 H        -6.3090055278        2.8134027423        0.6234552048
 H        -5.3154159265        3.6650472402        1.6029661615
 H        -9.3916138185        5.6668548841       -1.8632384070
 H        -9.0322644372        6.7434776491       -0.7003422825
 H       -11.7340127536        5.2372332390       -0.6591042833
 H       -11.3972982251        6.7566603022       -1.3865189215
 H       -12.5120033288        6.4445043678        4.6063252390
 H       -11.0572860739        7.1557953966        3.8193434438
 H       -10.5177424353        6.1098042719        5.7863869147
 H        -9.7721529145        5.1033612438        4.4390173645
 H       -15.0214842036        2.5844896661        5.6861737658
 H       -13.6607882166        2.6991015601        4.5697527827
 H       -15.1288949010        3.5923121113        4.2131333891
 H       -12.8263505261        2.2330102689        6.9243825896
 H       -13.6746083735        3.2372406266        8.0609307510
 H       -12.0586464589        2.9294005584        8.2451617298
 H       -12.3728695501        6.5346693703        6.8248012027
 H       -11.5338411304        5.6573387327        8.1199600442
 H       -13.2499685154        5.7075722601        8.1270784819
 H       -13.5084296520        8.4807505266        1.2398202427
 H       -12.3514866620        8.4911055375        2.4893149537
 H       -13.9506461720        7.7392065089        2.7966584620
 H       -14.6179314335        5.7335302422        1.4318173346
 H       -13.4894761042        4.5717088822        0.8473761038
 H       -13.7061021277        5.8858249680       -0.1842961497
 H        -7.9604784506        6.8746671377        2.2125446737
 H        -7.7401255731        7.4821285884        0.5797519791
 H        -6.3653240790        6.8696245596        1.5204666046
 H        -5.4921889113        5.0081051528       -0.4410890093
 H        -6.6672436461        5.9847823830       -1.1557078150
 H        -6.9187255974        4.3809484833       -1.2385127091
 H        -8.7806757830       -2.1291786801        2.0323909463
 H        -9.1009613537       -0.8840650290        3.4387506319
 H        -7.8430028246       -2.1916739254        3.5432064024
 H        -5.5494094814       -1.2472238184        3.5899093329
 H        -5.0805693777       -0.3448392069        2.1791814361
 H        -5.6567366281       -1.8758984567        1.7826105215
 H        -6.9226300091        0.3403671980       -5.2372073610
 H        -8.1747087150       -0.3792259152       -4.3874422535
 H        -6.6280035145       -0.2849380842       -3.6759641910
 H        -6.3193381976        3.5169822864       -3.3932992175
 H        -6.0877532449        2.6639287023       -5.0384344465
 H        -5.3417222185        2.1454503927       -3.5607398503
 H       -10.4332170440        3.3891912155       -9.3429067950
 H        -8.8637635005        3.1491428295       -8.6742224984
 H        -8.9747076105        4.1985665263       -9.9860304686
 H        -8.1886211044        6.8493831631       -8.3515458646
 H        -7.3669308421        5.2208173535       -8.7038076352
 H        -7.6724709132        5.8487609573       -7.0483095534
 Na      -10.0072619176        2.9987407771        3.1047608296
