117

 C       -10.6688242986        7.2562540507       -7.2411593514
 C       -10.7106688443        6.0137505915       -8.1535789996
 O       -11.6323155372        5.9826609841       -8.9261382232
 C        -9.4869883647        4.9301934549       -8.0135185421
 C        -9.5502630570        4.2380651388       -6.5903035782
 O        -9.1194889698        4.8957629385       -5.6283398522
 C       -10.1115142737        2.8613194845       -6.3495776882
 C        -8.9522259163        1.9502358480       -5.7457474429
 C        -8.8058521403        2.1637959766       -4.2269329459
 O        -9.6865990071        2.4408930198       -3.4674158323
 C        -7.4411048467        1.5379504497       -3.5945762757
 C        -7.6403499533        1.4120686915       -1.9861819910
 O        -7.0102430485        2.1930515797       -1.2743198569
 C        -8.6488796277        0.3488757312       -1.4796190580
 C        -8.6471639472        0.1886622087        0.0322589667
 C        -7.4136242920       -0.4535025889        0.5596098146
 O        -6.4934319749       -0.8053791224       -0.1519806725
 C        -7.2930647427       -0.4439616423        2.1661572420
 C        -7.4648645427        0.9934066152        2.7408815940
 O        -8.5504875406        1.2941522054        3.2843044373
 C        -6.2845710972        2.0018725334        2.7722421763
 C        -6.2546924391        3.0427099658        1.5774053067
 C        -7.2748079220        4.1997833961        1.8413599040
 O        -8.0429629110        4.2739896897        2.8142956730
 C        -7.5182014464        5.2067421686        0.6837461371
 C        -9.0392421493        4.8319503509        0.2007867753
 O        -9.5410278248        3.7739928640        0.4084977375
 C        -9.5504762034        5.7703261588       -0.8760317944
 C       -11.0592795565        6.1662095918       -0.6667326182
 C       -11.2738791169        6.8442164213        0.7249568415
 O       -10.4306178490        7.5310080213        1.1873203334
 C       -12.4863933902        6.5023081931        1.5814158659
 C       -11.9015014543        5.5886375982        2.6950140616
 O       -11.7338515839        4.4255594273        2.4161422942
 C       -11.5331868063        6.3009360707        4.0082133332
 C       -10.7109189352        5.4354322371        4.9507040179
 C       -11.4320607046        4.1866171329        5.5746023926
 O       -11.0443892391        3.0508321815        5.2697533985
 C       -12.6704897969        4.4039503892        6.5627669258
 C       -13.9867126515        4.6194910925        5.6699620397
 O       -14.3878104274        5.7345525122        5.4248121258
 C       -14.5361957211        3.3337326086        4.9989957518
 C       -12.6159406645        3.1392269082        7.6144090981
 C       -12.4004815435        5.6227497745        7.4827423964
 C       -13.0496150566        7.8235318095        2.1147245211
 C       -13.6180658794        5.7233291657        0.8053465798
 C        -7.4702578895        6.5880975796        1.3067407747
 C        -6.4430700418        5.1590032860       -0.4223774301
 C        -8.3733375108       -1.3812219942        2.8879619235
 C        -5.9238375041       -0.9951470491        2.4717706268
 C        -7.1574110554        0.1919833507       -4.3396974862
 C        -6.2497774823        2.5398553162       -3.8774179424
 C        -9.5865172339        3.9543661314       -9.2433155534
 C        -8.1335251018        5.6089782435       -8.1229157454
 H       -11.6178703322        7.7874976354       -7.1957750740
 H        -9.9506068109        7.9132761364       -7.6713603832
 H       -10.2992044770        7.0227883334       -6.2881520983
 H       -10.6235723517        2.3859646747       -7.1820380511
 H       -10.8680799291        2.9731856569       -5.6080676868
 H        -7.9946518761        1.9932369238       -6.3106422423
 H        -9.3225102698        0.9061958040       -5.7856457493
 H        -8.4393772366       -0.6291801468       -1.9800022941
 H        -9.5657257434        0.7042855020       -1.9307156909
 H        -9.2839963981       -0.5471682215        0.4299939436
 H        -8.7105498633        1.1348394769        0.5898905278
 H        -5.3725499199        1.4639272221        2.8169326092
 H        -6.2852494080        2.4255782063        3.7746668697
 H        -6.4880442955        2.6225882335        0.5746597059
 H        -5.2684410902        3.4239941266        1.4223463734
 H        -9.6793183202        5.1472623456       -1.7678879196
 H        -8.8788100080        6.5548356184       -1.1924239736
 H       -11.7314697661        5.3329779220       -0.8099858641
 H       -11.4258387348        6.8981260177       -1.3974850720
 H       -12.4869953654        6.5271710360        4.5665550557
 H       -10.9206381966        7.1864840156        3.7799096344
 H       -10.3170641216        6.1101324029        5.7056854654
 H        -9.9213533832        5.0074385805        4.3042511258
 H       -14.7927786935        2.5884431590        5.7280777910
 H       -13.6612228681        2.8919937202        4.4224430666
 H       -15.3971138145        3.4820274149        4.3704095197
 H       -12.5370750678        2.1293143718        7.3037772342
 H       -13.3385514903        3.2454191375        8.3903646434
 H       -11.7585022300        3.2987762658        8.2880305953
 H       -11.9895304205        6.4579334217        6.8998934928
 H       -11.6987415316        5.4633580726        8.2793745384
 H       -13.3141450444        5.9289535632        7.9595453901
 H       -13.3612511689        8.4302168409        1.2790279129
 H       -12.3203980701        8.4626654749        2.5595036073
 H       -13.9061477076        7.6722544345        2.8156749067
 H       -14.4067996526        5.8231070650        1.5123274364
 H       -13.4238515966        4.6752600985        0.7537097422
 H       -13.7769135647        6.0876668605       -0.1980157567
 H        -8.0501739830        6.5574343361        2.2136943906
 H        -7.8911894688        7.3773304884        0.7112403865
 H        -6.4558816528        6.8464115230        1.5990350913
 H        -5.4327957430        5.0414833350       -0.1526031599
 H        -6.4281366301        6.0056586117       -1.0950872270
 H        -6.6469220008        4.3318380678       -1.1448662082
 H        -8.8878014756       -2.0535226117        2.1682322058
 H        -9.0710487565       -0.7182178511        3.3907492420
 H        -7.9567225892       -2.0826809697        3.6805712629
 H        -5.8276517656       -1.5069901812        3.4982884344
 H        -5.1216075235       -0.1905626761        2.5544651645
 H        -5.6082021668       -1.5431605397        1.6376333802
 H        -6.8430821599        0.2678642288       -5.4096164258
 H        -7.9405205523       -0.5208642861       -4.3554054573
 H        -6.3084528344       -0.3054428272       -3.7936724725
 H        -6.3544758046        3.2520999116       -3.1216167068
 H        -6.1792515259        2.9538601609       -4.9062035573
 H        -5.2638642416        2.1253845528       -3.6676478586
 H       -10.4986143770        3.4228660584       -9.1406698988
 H        -8.8219253937        3.1590044544       -9.2559454510
 H        -9.4732362622        4.4350073108      -10.2234186152
 H        -8.0463199595        6.3595471927       -8.9183075578
 H        -7.3315308067        4.7902471989       -8.2141191576
 H        -7.9805935817        6.1891278678       -7.1963928107
 Na       -9.9562871011        3.0225120064        3.0522505907
