117

 C       -10.6510541808        7.2464342066       -7.2485166871
 C       -10.6750028899        5.9953253879       -8.1794469455
 O       -11.5016808865        5.8245963304       -9.0675909577
 C        -9.5661581878        4.9503449637       -7.9926053447
 C        -9.5678636142        4.2231804119       -6.5987391974
 O        -9.1096399424        4.8902724340       -5.6545851661
 C        -9.9949013679        2.8188280126       -6.4066081293
 C        -8.9347119673        1.9098577609       -5.6389242460
 C        -8.7990400638        1.9828100341       -4.1670349483
 O        -9.6949762282        2.3968990604       -3.4257955899
 C        -7.3797880284        1.4779770008       -3.5400248691
 C        -7.6345444475        1.3105712291       -2.0253130136
 O        -7.0485268449        2.0646167210       -1.2905405175
 C        -8.6891110236        0.3976767813       -1.5052627723
 C        -8.7777407392        0.1783456589       -0.0608975799
 C        -7.4067241424       -0.3725177537        0.5491995938
 O        -6.5395869784       -0.7596739138       -0.2109827964
 C        -7.1912400349       -0.4581065399        2.1560067703
 C        -7.4524364104        0.9763122042        2.7786743944
 O        -8.5766872009        1.2396516158        3.2319825046
 C        -6.3796616707        2.0497424837        2.8930556926
 C        -6.4155484779        2.9497965765        1.6691779785
 C        -7.3371070886        4.1696354517        1.8195390675
 O        -7.9879141697        4.2360997307        2.8536076126
 C        -7.5645055386        5.2134364972        0.7334927601
 C        -8.9718194443        4.7979926443       -0.0090631410
 O        -9.6064316085        3.9173138408        0.4828811787
 C        -9.6133903698        5.7456253894       -1.0797860970
 C       -11.0953364064        6.1779194312       -0.7617545471
 C       -11.1684543423        6.8708002031        0.6736245351
 O       -10.2738317899        7.6317998322        1.1086919576
 C       -12.5249789564        6.5914335068        1.6280991925
 C       -11.8853749321        5.6010230273        2.7057472695
 O       -11.6229810500        4.4289318483        2.4989503521
 C       -11.4296177406        6.2499031356        3.9721134696
 C       -10.7146945239        5.3913080130        5.0051848981
 C       -11.4796286593        4.1890734343        5.5937632051
 O       -11.0351295902        3.0647306815        5.4303424288
 C       -12.6075037785        4.4820645849        6.6212029753
 C       -13.9162476651        4.6076300783        5.7894348355
 O       -14.3790336006        5.7310359909        5.6261820302
 C       -14.5960453724        3.4453083849        5.0677865289
 C       -12.5939842776        3.2386948446        7.4807299553
 C       -12.4664982476        5.7363791960        7.4106461754
 C       -13.0590103260        7.8955226202        2.1436322041
 C       -13.6162929379        5.8387372987        0.7469113968
 C        -7.5896337313        6.6190411432        1.3891587159
 C        -6.4528710032        5.1341480440       -0.3404352785
 C        -8.3907049121       -1.3064346680        2.7280662540
 C        -5.8170341702       -1.1238733324        2.5698625277
 C        -6.9613380026        0.1761059455       -4.2495773610
 C        -6.3092490383        2.4839628057       -3.8589040721
 C        -9.7752991723        3.9524169696       -9.2823015385
 C        -8.1889287175        5.5810413108       -8.1897190754
 H       -11.4861558994        7.8965523846       -7.4604269759
 H        -9.7690000365        7.8460438897       -7.4422227813
 H       -10.6372610179        6.9649553863       -6.1988050050
 H       -10.1939424107        2.2846891423       -7.3696499733
 H       -11.0090004596        2.7942931909       -5.8959963878
 H        -7.9056866029        2.0632868791       -6.0482769456
 H        -9.3115309434        0.8298481844       -5.9470122411
 H        -8.5769339619       -0.5607506719       -2.0159416975
 H        -9.5618945864        0.8003274266       -1.9620062669
 H        -9.5079162580       -0.5660490368        0.2584220645
 H        -8.8088030676        1.1270534158        0.4126946674
 H        -5.4291954480        1.5853808540        2.9663752503
 H        -6.4896535782        2.4937452250        3.8698663416
 H        -6.5866686170        2.3777887752        0.6779336948
 H        -5.3734533800        3.2807593799        1.5414651328
 H        -9.7169854580        5.3178622846       -2.1475372757
 H        -8.9831087107        6.6575897645       -1.1917499590
 H       -11.8205043223        5.3934201414       -0.8294631896
 H       -11.4587136818        6.9479078725       -1.4217591314
 H       -12.3583063737        6.6242185216        4.4934346981
 H       -10.7241738987        7.0688356316        3.6861014916
 H       -10.3740111172        6.0525885357        5.7904965216
 H        -9.9190030476        4.9174443016        4.4492610341
 H       -14.7312947632        2.6796804274        5.7981164679
 H       -13.9685446014        2.9778323051        4.2616981729
 H       -15.5960329593        3.7144927444        4.7441640637
 H       -12.7294417242        2.2968393953        6.8876267558
 H       -13.3007490321        3.3234745333        8.3191525072
 H       -11.7204168995        3.0756727926        8.1071461091
 H       -12.1225600199        6.5306680691        6.8172776943
 H       -11.7475873550        5.7036691369        8.2595109192
 H       -13.4425909300        5.9551990289        7.8562694222
 H       -13.5045059017        8.4817833086        1.3744016910
 H       -12.2906670357        8.5110860627        2.5125492591
 H       -13.7864173899        7.7320645091        2.9511221494
 H       -14.4019492265        5.6260683683        1.4242524262
 H       -13.2087137741        4.8576006731        0.4233513813
 H       -13.9104853400        6.4265745230       -0.1268751649
 H        -8.2811186808        6.5778035634        2.2185462854
 H        -7.9701281355        7.3407533019        0.7200771330
 H        -6.6168265970        6.9446899256        1.7678249712
 H        -5.4637194358        5.3081674423        0.0795114630
 H        -6.4696450600        5.9125011482       -1.1507044972
 H        -6.3374138561        4.2189538881       -0.8603923766
 H        -8.7059469034       -2.0041382662        1.9826385030
 H        -9.1793761259       -0.6332700690        2.9591347608
 H        -8.1803566660       -1.8695979727        3.5952416631
 H        -5.8896002915       -1.5081470676        3.5191910353
 H        -4.9548608436       -0.4309968051        2.6335450757
 H        -5.5526028224       -1.8784992080        1.7843939130
 H        -6.8547639328        0.1748905859       -5.3615538889
 H        -7.7853015685       -0.5536758851       -4.0383372238
 H        -6.0209346104       -0.3141896646       -3.8407951781
 H        -6.3398727935        3.2175129336       -3.0325515841
 H        -6.3649132345        2.8798124669       -4.8152692193
 H        -5.3148388354        2.0422756567       -3.7430402460
 H       -10.6619475541        3.3537621030       -9.0314857554
 H        -9.0043380752        3.3162608107       -9.6464083419
 H       -10.0329806883        4.5729743555      -10.1518473645
 H        -7.9020273799        5.7489888425       -9.2457401402
 H        -7.4424427968        4.9498961891       -7.7158215504
 H        -8.1876937385        6.5872315944       -7.7475694118
 Na       -9.9150651043        3.0772767823        3.0093053352
