117

 C       -10.6695544552        7.1527192545       -7.2803275798
 C       -10.6787614207        5.9936341323       -8.2167633306
 O       -11.5114097018        5.8630772368       -9.0871251530
 C        -9.5787492058        4.9209254613       -8.0397938452
 C        -9.4861183409        4.2320252731       -6.6297248503
 O        -9.1504946395        4.9124980765       -5.7138673000
 C        -9.9495149855        2.6862835283       -6.4241693209
 C        -8.8827307032        1.8240221080       -5.7366894855
 C        -8.7960137080        1.9344685514       -4.1809202688
 O        -9.6558581365        2.3483688349       -3.4218748574
 C        -7.4364405887        1.4583540489       -3.5387650257
 C        -7.6276019309        1.3113478374       -2.0472851440
 O        -7.0397793430        1.9418661946       -1.2055207125
 C        -8.7620779745        0.3018867696       -1.5160944973
 C        -8.8044422330        0.1923557944       -0.0231454433
 C        -7.3447861632       -0.2409688369        0.5956449016
 O        -6.5716335793       -0.7282181362       -0.1430593703
 C        -7.2619499155       -0.4554114454        2.2007527310
 C        -7.4590753000        0.9043937648        2.8774910125
 O        -8.6068695013        1.1970218774        3.0754998506
 C        -6.3322384747        2.0648090285        2.9064343391
 C        -6.4518517252        2.9268894285        1.7029425256
 C        -7.4521154971        4.0876698240        1.8552295050
 O        -7.9330197317        4.3022300509        2.9488662747
 C        -7.6531790716        5.1478145715        0.7247673527
 C        -8.9981412791        4.9640169607        0.0613810559
 O        -9.7134171262        4.0334244630        0.5105095760
 C        -9.5396519598        5.7629964701       -1.0810151018
 C       -10.9357488680        6.1761025670       -0.7458331229
 C       -11.1515397911        6.8539089513        0.5852374063
 O       -10.3283867070        7.6388861558        1.0128151919
 C       -12.3909137632        6.5935810386        1.5534057932
 C       -11.8294498543        5.7056327765        2.6701314286
 O       -11.7159358871        4.4956633572        2.4266181821
 C       -11.4070777640        6.3698860969        4.0312769687
 C       -10.5593773914        5.4366319302        5.0101899885
 C       -11.3157801437        4.2365868840        5.6381091137
 O       -11.0481558863        3.0948949063        5.3258982371
 C       -12.5355185271        4.4911593050        6.6593072410
 C       -13.9215265796        4.6610434008        5.7996564531
 O       -14.4050052741        5.7605476322        5.7716015476
 C       -14.6417260781        3.4711782950        5.1759411656
 C       -12.7339413412        3.2003127247        7.5076689709
 C       -12.4572623755        5.8754223584        7.4169050176
 C       -12.9767701787        7.8707905278        2.1402497876
 C       -13.5549560723        5.9020158131        0.8060233055
 C        -7.7120929694        6.5630774391        1.3658245796
 C        -6.4550888449        5.1559347690       -0.3597184534
 C        -8.3795202246       -1.4657394801        2.4794877462
 C        -5.9167937478       -1.1064143981        2.5157760547
 C        -6.8805851883        0.0377027252       -4.1169122367
 C        -6.3525772346        2.5505307938       -3.8556660796
 C        -9.8613207887        3.8243414189       -9.1619367656
 C        -8.1190618417        5.5835570365       -8.3160275481
 H       -11.4378937646        7.8201051321       -7.6582795634
 H        -9.7378684100        7.7520312156       -7.2516611587
 H       -10.9316009632        6.8195360862       -6.2427168066
 H       -10.1806338325        2.1405837838       -7.3715138332
 H       -10.9401363596        2.6007445583       -5.8411107008
 H        -7.8729109938        2.1408102016       -6.0878062112
 H        -9.1031238477        0.7983602991       -6.1545105913
 H        -8.7098629404       -0.6521479808       -1.9833820435
 H        -9.7246173963        0.6818678946       -1.9241843830
 H        -9.4528060593       -0.6526623494        0.3469454210
 H        -8.9499510914        1.1877989141        0.3784873289
 H        -5.2736174472        1.7683960837        3.1737449241
 H        -6.6450271013        2.6018460533        3.8066426991
 H        -6.7136207725        2.3479592534        0.7766173237
 H        -5.4131714798        3.3526747891        1.4347368935
 H        -9.6895695958        5.1643462370       -2.0200569177
 H        -8.8811675423        6.6525264566       -1.3453424851
 H       -11.5433692021        5.2724541696       -0.6492437122
 H       -11.4647978776        6.8116874749       -1.4522561877
 H       -12.2509938685        6.7427996963        4.5863868608
 H       -10.7014508826        7.1676086250        3.7155452788
 H       -10.2741063060        6.0759037800        5.8588801180
 H        -9.7301492694        5.0792163796        4.4379646297
 H       -14.6780427199        2.5886992759        5.8671097846
 H       -14.1002806380        3.1374852427        4.3488406862
 H       -15.6840178380        3.7292496153        4.9338773422
 H       -13.0305215879        2.3555759835        6.8351807285
 H       -13.4466663033        3.3687247140        8.3494407068
 H       -11.9293381018        2.7929423391        8.1127837398
 H       -12.3933733910        6.7396907975        6.7627719542
 H       -11.5395290821        5.9549255496        8.0107777957
 H       -13.2808397147        5.9298107879        8.1285127971
 H       -13.5851912680        8.4554163408        1.4625356330
 H       -12.1961635943        8.5441953252        2.5286310212
 H       -13.5558882960        7.5875554748        2.9492323634
 H       -14.3810835750        5.7235676203        1.5270971608
 H       -13.2912447128        4.9765576117        0.2666405320
 H       -13.8326766737        6.6889843596        0.0887053486
 H        -8.5460080061        6.5812503132        2.0740568595
 H        -7.9355799881        7.3219179902        0.5999438949
 H        -6.7956453015        6.8236244174        1.8753468970
 H        -5.5926753861        5.6495603338        0.1630556731
 H        -6.5496447781        5.8119034290       -1.2055143498
 H        -6.0146237159        4.2591196746       -0.7387999683
 H        -8.1318035721       -2.2941269620        1.9017312744
 H        -9.3638853329       -1.1141075062        2.2697025240
 H        -8.3644848934       -1.7498640234        3.4693791999
 H        -5.8629176032       -1.3025814731        3.5563711229
 H        -5.0926000723       -0.5273613284        2.2943698689
 H        -5.8557409349       -2.0359777434        1.9149114524
 H        -6.7122011674        0.0545054584       -5.2063202518
 H        -7.5978883549       -0.8551747157       -3.9209757037
 H        -5.9197048450       -0.2404020947       -3.6957134858
 H        -6.4613262475        3.3966496087       -3.1467730037
 H        -6.3769765091        2.8442334477       -4.8921963428
 H        -5.3750059075        2.1558659710       -3.6269364801
 H       -10.8450908223        3.3264894149       -9.0007749937
 H        -9.0777137036        3.0927425870       -9.3662162645
 H        -9.9111828241        4.3811594009      -10.0768124064
 H        -7.6768197663        5.5150787930       -9.3197661844
 H        -7.4166685342        5.2308693261       -7.6344735749
 H        -8.3007070498        6.6321943129       -8.1369424195
 Na       -9.8908837827        3.1033062009        3.0503922020
