117

 C       -10.6019303727        6.7840859321       -7.1202827341
 C       -10.6501233357        5.7059571223       -8.2308082215
 O       -11.5027762947        5.7172859795       -9.0712589591
 C        -9.5020970486        4.5758766222       -8.1827773325
 C        -9.5131710240        4.1318110824       -6.7077099368
 O        -9.1158930808        4.9059530772       -5.8548907206
 C        -9.9513052900        2.7626738351       -6.4128453571
 C        -8.7365947962        1.9465906604       -5.8468439713
 C        -8.7200003289        1.8813887920       -4.3349291327
 O        -9.7505911878        2.1154064594       -3.6943129370
 C        -7.3866316898        1.4282273818       -3.6132641440
 C        -7.7160707504        1.3190819251       -2.0317842541
 O        -7.0698125702        1.9857041751       -1.2787920814
 C        -8.7251708426        0.3718793354       -1.5784603366
 C        -8.8523004080        0.1941188155       -0.0387451428
 C        -7.4471200056       -0.4107363594        0.4948589909
 O        -6.4789285537       -0.6156468709       -0.1498952380
 C        -7.3355928756       -0.6595278460        2.0798275137
 C        -7.7826985432        0.7368301683        2.6033159186
 O        -8.9849550879        0.9311709125        2.7841793142
 C        -6.7061295213        1.8877468758        2.9180407124
 C        -6.4873831902        2.9102069498        1.7649777757
 C        -7.3584323665        4.1006566828        2.0275435782
 O        -7.7788417636        4.3207031660        3.1716058143
 C        -7.5963483472        5.1459876446        0.9302409642
 C        -9.0594546310        4.9689304722        0.3872081928
 O        -9.6825259552        4.0450092851        0.9261860523
 C        -9.5586115551        5.6501416369       -0.8573177936
 C       -11.0030731158        6.0725877671       -0.7521259099
 C       -11.1605201532        6.9414669475        0.4762802212
 O       -10.4176943364        7.9303628701        0.7009987864
 C       -12.3387394903        6.6914234269        1.4898118145
 C       -11.7933186136        5.8980239686        2.6863408867
 O       -11.7957837342        4.6779640434        2.5976699711
 C       -11.3515816929        6.5450105203        3.9982173211
 C       -10.6904526360        5.5982875611        4.9687057299
 C       -11.4888852901        4.4294598550        5.4933032689
 O       -11.4305584535        3.3153610835        5.0203591308
 C       -12.4637188215        4.5957733944        6.6877793908
 C       -13.8603776501        4.8396083051        5.9502429919
 O       -14.3325787232        5.9392166660        5.7889797253
 C       -14.4640112406        3.6319129397        5.3020065256
 C       -12.4451807930        3.2417769021        7.4745728202
 C       -12.0905160340        5.8618836566        7.5080318436
 C       -12.7954803272        8.1080428734        1.9757336867
 C       -13.5517646351        5.9736918781        0.8570327543
 C        -7.4694339350        6.6345627230        1.5456188211
 C        -6.6858167592        5.0020427228       -0.2500958124
 C        -8.2831441121       -1.6689289982        2.7537507428
 C        -5.8950459560       -1.0013776125        2.5090419520
 C        -6.8030747142        0.0826591180       -4.0880318672
 C        -6.3181518862        2.5586519062       -3.7582778207
 C        -9.9290034434        3.5462744830       -9.2219784510
 C        -8.1457726310        5.4341411491       -8.4645537166
 H       -10.9728898563        7.7190339784       -7.4190753002
 H        -9.5894296471        6.9433346495       -6.8119316199
 H       -11.1752341853        6.3787390927       -6.2991649790
 H       -10.3853523048        2.3146111244       -7.2806538541
 H       -10.6970952610        2.7714541827       -5.6323523315
 H        -7.8283265544        2.2918260682       -6.2911543055
 H        -8.8427668024        0.8391344063       -6.1095235112
 H        -8.5767168553       -0.4883514939       -2.2435259806
 H        -9.6992448922        0.6563169729       -1.9501194825
 H        -9.6519743350       -0.5163397513        0.1201477289
 H        -8.9174489144        1.1146586042        0.4517129774
 H        -5.7891123998        1.3774554410        3.1853422123
 H        -6.9535349067        2.4618610212        3.7874622025
 H        -6.5925952347        2.4784778050        0.7523684600
 H        -5.5137030864        3.3211107806        1.8922442639
 H        -9.5484082571        4.8717243033       -1.6439541389
 H        -9.0260075213        6.5734716791       -1.0753640175
 H       -11.7368194018        5.2974021488       -0.6002049203
 H       -11.2744253257        6.7340993970       -1.5620761130
 H       -12.2527338201        7.0552888769        4.4452906136
 H       -10.5832604791        7.3372212162        3.7909224822
 H       -10.2453344386        6.1972011817        5.7758876167
 H        -9.9086139106        5.1988829362        4.3250363881
 H       -14.8243415001        3.0381844544        6.1462779529
 H       -13.7722384247        2.9663598797        4.7889154439
 H       -15.3398793403        3.9468373213        4.7091571744
 H       -12.1298320652        2.4621054256        6.7823840830
 H       -13.3815440050        2.9174786327        7.9099980162
 H       -11.7413869155        3.1848088635        8.2550197199
 H       -12.1026329589        6.7820572236        6.9856012562
 H       -11.0739564255        5.7664091187        7.9396916495
 H       -12.7882790750        6.0163585330        8.3421890715
 H       -13.2167591322        8.6099397325        1.0889901220
 H       -11.9549190771        8.6833198563        2.4003270971
 H       -13.5893611325        8.1446451853        2.7294728310
 H       -14.4087101443        6.1393156305        1.4560717601
 H       -13.2787022017        4.9195177973        0.8456224845
 H       -13.8056960078        6.3841987254       -0.1046381408
 H        -8.2938130574        6.8902796616        2.2088247537
 H        -7.5361479056        7.2815748672        0.6874506126
 H        -6.4826998236        6.8285876065        1.9847496470
 H        -5.6215738877        4.9140763681        0.0206257760
 H        -6.7085494669        5.8942051561       -0.9186492821
 H        -6.8151124152        4.1144588489       -0.7906195921
 H        -8.1288644629       -2.7287869721        2.3780376357
 H        -9.3871258565       -1.4030256618        2.5733424315
 H        -8.0761238526       -1.5737267584        3.8403265452
 H        -5.7460216434       -0.7779533690        3.5489339537
 H        -5.1394636612       -0.4548056136        1.9053431844
 H        -5.7274189095       -2.1636628520        2.4158378242
 H        -6.3724031912        0.1286470563       -5.0463935560
 H        -7.7026495577       -0.5733411640       -4.1335549908
 H        -6.0805841930       -0.4473369740       -3.5161461577
 H        -6.7081788224        3.6081583719       -3.9025932015
 H        -5.7963209820        2.3067555499       -4.6264327422
 H        -5.6338397011        2.5175219726       -2.9020556462
 H       -10.9807741979        3.2327730367       -9.0783410831
 H        -9.2884751644        2.6951918754       -9.2393791863
 H        -9.8710190919        4.0500267871      -10.1876282935
 H        -7.7494870017        4.8698634824       -9.3467662400
 H        -7.3544486290        5.2188719635       -7.7540452647
 H        -8.2233335760        6.5261913120       -8.6463886853
 Na       -9.8759324271        3.2488379156        3.1305496722
