117

 C       -10.7055299869        6.7888745100       -7.2240519122
 C       -10.7255853235        5.7077802961       -8.2299994677
 O       -11.6073840932        5.6102739569       -9.0573862896
 C        -9.5265963484        4.5758014632       -8.2291381533
 C        -9.4548347651        4.0102115486       -6.7914225407
 O        -8.8699447325        4.6759865263       -5.9197005635
 C        -9.8886244728        2.5356650825       -6.3912246625
 C        -8.6842105719        1.8116353863       -5.8379134542
 C        -8.7286346468        1.8033659416       -4.2883577564
 O        -9.7537454791        2.0099735059       -3.6621819376
 C        -7.3268830019        1.4809644883       -3.5959908491
 C        -7.6221074814        1.3366068105       -2.0465806699
 O        -7.3089056446        2.1942523770       -1.2073587890
 C        -8.6676523573        0.2306654897       -1.6265686098
 C        -8.8445810901       -0.0954780229       -0.1472924453
 C        -7.4865597698       -0.5089036275        0.4998095120
 O        -6.5377077470       -0.8380491182       -0.1983123257
 C        -7.3942487438       -0.6060280235        2.0902051038
 C        -7.8293735384        0.7898263108        2.7670352196
 O        -8.9952137126        1.1443687032        2.6398560105
 C        -6.7500618238        1.8691528648        3.1692327173
 C        -6.6640127255        2.7911442805        1.9527711190
 C        -7.3904162769        4.1509004663        2.1925872694
 O        -7.7921410521        4.4879060069        3.2877724383
 C        -7.4879654303        5.0985989357        1.0127536068
 C        -8.9630660021        4.8745404102        0.5773533430
 O        -9.7170459832        4.0663101051        1.0477452124
 C        -9.4767266672        5.5782051112       -0.7217432834
 C       -11.0356363190        5.8705725525       -0.5738085155
 C       -11.1939203245        6.9927450434        0.5647703880
 O       -10.4203132463        7.9108871075        0.5533912705
 C       -12.4804006915        6.9159863126        1.5275504196
 C       -11.9457884591        6.0604916739        2.7055519517
 O       -11.8096230438        4.8831231518        2.4195537978
 C       -11.4124251804        6.7412055865        3.9761947974
 C       -10.5702660285        5.7373577307        4.9435129894
 C       -11.3482084443        4.5045757157        5.4528502132
 O       -11.3628663144        3.4514475619        4.7844612929
 C       -12.2875725397        4.6733097393        6.6933442110
 C       -13.6513181017        4.8999418775        5.8882399982
 O       -14.1442352084        6.0105085693        5.8172045212
 C       -14.5582822360        3.7215716105        5.4294844517
 C       -12.3452913747        3.4348491097        7.5562411567
 C       -12.1315644859        5.7956694248        7.6704406861
 C       -13.0265060244        8.3186399429        1.8996701337
 C       -13.6465513538        6.1775901532        0.8343773884
 C        -7.3373572951        6.5441308997        1.5409093998
 C        -6.4758458245        4.9854349865       -0.1579768226
 C        -8.4143520651       -1.7496905318        2.6099810660
 C        -5.9423783304       -0.9527174761        2.3908059789
 C        -6.9359569160        0.0975640434       -4.2108807757
 C        -6.2907177046        2.5771865560       -3.9248982722
 C        -9.7763829763        3.5818502518       -9.3362618672
 C        -8.1304991471        5.2147700480       -8.6092068021
 H       -11.1149940763        7.6828601976       -7.7451740879
 H        -9.7207238992        7.0733708150       -6.8685352964
 H       -11.3793178468        6.5030650008       -6.4282173986
 H       -10.2782237256        1.9434577514       -7.2772048910
 H       -10.7002764110        2.5808280019       -5.5807477799
 H        -7.8174739089        2.4087821703       -6.2890634158
 H        -8.5466536017        0.7933689290       -6.2052173341
 H        -8.5041698990       -0.6368990452       -2.2427023689
 H        -9.6704665839        0.4643868328       -2.0048742307
 H        -9.4074043867       -0.9999963924       -0.3541075062
 H        -9.2613298000        0.6689492173        0.5680511159
 H        -5.7668144266        1.3967677671        3.3706073761
 H        -7.0253291776        2.4987572906        4.0666607664
 H        -7.1850807260        2.2780062806        1.1252243971
 H        -5.5816140590        3.0390643758        1.6432254287
 H        -9.5684875254        4.8250385973       -1.5140233166
 H        -8.9745667623        6.5219237448       -0.9964145325
 H       -11.5653595617        4.9732140764       -0.2333034531
 H       -11.4309497356        6.3124524034       -1.4939748679
 H       -12.1957203659        7.1989708914        4.5701879267
 H       -10.7713120903        7.5815648795        3.6774907537
 H       -10.2333478941        6.3660761938        5.7662802957
 H        -9.6580282564        5.4338651335        4.3950628114
 H       -15.1872284871        3.3349362581        6.2194840226
 H       -13.9713672562        2.8341152755        5.0931462831
 H       -15.1271437529        4.1085088600        4.6092964578
 H       -12.6677296928        2.4768098433        7.1092624301
 H       -13.0869375187        3.6045175916        8.3763026097
 H       -11.3176893397        3.1828501209        8.0126085399
 H       -12.1379003286        6.7750580269        7.1418151148
 H       -11.2478587812        5.7324299225        8.2785770371
 H       -12.9975830573        5.9177546935        8.3020298163
 H       -13.5715015855        8.7684543323        1.1194154919
 H       -12.3081139182        8.9462504670        2.3309615839
 H       -13.7605643715        8.1630449909        2.6893383410
 H       -14.5912468244        6.2518635655        1.3889875774
 H       -13.3168245536        5.1668366068        0.6966148961
 H       -13.9038578160        6.7300753274       -0.0650283981
 H        -7.6209684090        6.6212086130        2.5744071575
 H        -7.9236943447        7.2192405306        0.9292993156
 H        -6.3192592169        6.8245950503        1.3622387369
 H        -5.4542973714        4.8554464938        0.1490985546
 H        -6.5325174686        5.8840734799       -0.7353287875
 H        -6.6196308362        4.1117053139       -0.8460686460
 H        -8.3590251514       -2.5576690946        1.9534228257
 H        -9.3845065963       -1.4284470243        2.5273745946
 H        -8.2146428481       -2.0278491956        3.6140407921
 H        -5.7765600400       -1.0811036311        3.4599740881
 H        -5.3888829954       -0.1099843648        2.0439485175
 H        -5.6102532353       -1.8049981616        1.9286338648
 H        -6.6091687274        0.3258013225       -5.2867890836
 H        -7.5524977130       -0.7839725013       -4.1723425588
 H        -5.9181214738       -0.2159948334       -3.8138890840
 H        -6.8042653712        3.4739285893       -3.7595426177
 H        -6.0450243452        2.6283936674       -5.0191807016
 H        -5.4088930638        2.5030857844       -3.3021297045
 H       -10.5519999379        2.8713481896       -9.1541564699
 H        -8.8310911915        3.0176946647       -9.4824569789
 H       -10.0513112605        4.1286492378      -10.2444640739
 H        -7.5737443335        4.5385242378       -9.2113031524
 H        -7.4203404833        5.5254667779       -7.8114581356
 H        -8.3883142466        6.1308913696       -9.1201630594
 Na       -9.9166390153        3.0689841492        3.1817107019
