117

 C       -10.5922710055        6.4880403674       -7.1912695759
 C       -10.7374743440        5.2928043578       -8.2545755036
 O       -11.7650768588        4.9957208656       -8.8290861299
 C        -9.3737994636        4.4501840015       -8.4773937795
 C        -9.1742723526        3.7510655472       -7.1016094019
 O        -8.3785327991        4.2788554096       -6.3518044354
 C        -9.8301016902        2.3890745794       -6.7229578990
 C        -8.8073316422        1.5167638129       -5.9767136075
 C        -8.8264260284        1.6569985977       -4.4378379399
 O        -9.8029222098        2.1830325126       -3.9246587552
 C        -7.5320134129        1.3709460799       -3.7139368436
 C        -7.9688637437        1.1457824905       -2.1782703553
 O        -7.6669571562        1.9470341474       -1.3758112844
 C        -8.7637934458       -0.1204307171       -1.7123887075
 C        -8.8602653609       -0.6099215538       -0.2767555630
 C        -7.5549799980       -0.6542389651        0.5543279015
 O        -6.5534501271       -0.9252019554       -0.0115547790
 C        -7.5816128237       -0.6719712400        2.2409486204
 C        -7.9346942899        0.7478185097        2.6701963283
 O        -9.1484491931        1.1154300474        2.4660091388
 C        -6.9206571997        1.6806269926        3.1962516900
 C        -6.5165319064        2.8005967984        2.1888383373
 C        -7.2249343323        4.1622742581        2.3891516791
 O        -7.9107660151        4.4115846931        3.4169364657
 C        -7.3998020429        5.1760346319        1.2460586816
 C        -8.8693528941        4.8550207830        0.5756958551
 O        -9.3612898093        3.7486099329        0.7224339356
 C        -9.4663807797        5.6882843344       -0.5455324053
 C       -10.9753037363        5.9618921175       -0.4195427302
 C       -11.2396948560        7.1623610337        0.4672868489
 O       -10.4128003185        8.0661306524        0.5941471304
 C       -12.4964512763        7.0705056527        1.4295470173
 C       -11.9073390023        6.1609390695        2.6139424411
 O       -11.9714523811        4.9483832371        2.5440258406
 C       -11.4629058353        6.8598433755        3.9295661793
 C       -10.5395049224        6.0515881610        4.8850700475
 C       -11.2024583968        4.8164043450        5.5827378325
 O       -10.7250306102        3.7476685295        5.2948217308
 C       -12.2038999509        4.8973836526        6.7395272532
 C       -13.6987354716        5.1681287849        6.1040136413
 O       -14.0010239500        6.2759337528        5.7560478594
 C       -14.7311017524        4.0801153351        5.9527931123
 C       -12.2475661897        3.6679444699        7.6016861684
 C       -11.9524546567        6.2496202253        7.5059170745
 C       -12.9044839158        8.4400697212        1.8932987997
 C       -13.6936803229        6.3956321834        0.7292545566
 C        -7.5388927774        6.5534075867        1.9371649524
 C        -6.4061704450        5.1273352951        0.1138352897
 C        -8.6498158061       -1.7102374342        2.6790774136
 C        -6.1041712311       -1.0990080101        2.6175004761
 C        -6.6867466469        0.3181079515       -4.4134672632
 C        -6.7368086764        2.7283753016       -3.7219711195
 C        -9.6666573259        3.5119139211       -9.6619946419
 C        -8.2065927983        5.3977557303       -8.7540503089
 H       -10.7066966351        7.4002431875       -7.7267520587
 H        -9.6402795845        6.5254163755       -6.6703330740
 H       -11.3941656849        6.4201097204       -6.4621428678
 H       -10.1247808138        1.7905319295       -7.6426909239
 H       -10.6745271597        2.4660407640       -5.9446369769
 H        -7.8255950807        1.7098089029       -6.3786457874
 H        -8.9459953612        0.4670937050       -6.3528144777
 H        -8.2402313752       -0.8968693924       -2.3284420076
 H        -9.7092374680       -0.1043703482       -2.2084705535
 H        -9.1290993608       -1.6911998001       -0.2065159406
 H        -9.5788128000        0.0355334962        0.2932910046
 H        -5.9511650401        1.2230049672        3.4197793359
 H        -7.3104662225        2.2790658086        4.0846688885
 H        -6.7855515271        2.4961015900        1.1141816271
 H        -5.4567373832        3.0581483249        2.3472934326
 H        -9.2079674954        5.0853919103       -1.4454941655
 H        -9.0854898296        6.6989259250       -0.5513642650
 H       -11.5303451851        5.0989960728        0.0033924257
 H       -11.3991618961        6.2696512263       -1.4185031589
 H       -12.3970156640        7.1103589038        4.4762500816
 H       -11.0937677133        7.8387025280        3.7177831144
 H       -10.1175722446        6.7001750609        5.6545542403
 H        -9.6294301344        5.7591112104        4.3419387576
 H       -14.7225507016        3.3224226686        6.7018078403
 H       -14.5380987374        3.6484916062        4.9611942240
 H       -15.7447912696        4.4747226740        5.7827145503
 H       -12.2355265530        2.7879275629        6.8763544392
 H       -13.2362263503        3.4828942567        8.0957547992
 H       -11.4032417890        3.5985589399        8.2906469566
 H       -12.2384448111        7.1005422108        6.9255506828
 H       -10.8756713147        6.3606983168        7.7981646101
 H       -12.4615358554        6.2579597840        8.4894658751
 H       -13.2811835450        9.0340198312        1.0913186791
 H       -12.0546489692        8.9886142338        2.2392265055
 H       -13.6285029119        8.3596793171        2.6846155229
 H       -14.5457337222        6.3504150620        1.3762821636
 H       -13.4722834218        5.3438170842        0.4157875951
 H       -13.8672355368        6.9878398338       -0.1873464971
 H        -8.4866942868        6.5620910513        2.4292223289
 H        -7.4289183132        7.3639511324        1.2700379741
 H        -6.7878997630        6.5749690494        2.7205425833
 H        -5.3902406305        4.9148669057        0.4359792787
 H        -6.4345095954        6.0940732175       -0.4566042496
 H        -6.7012245286        4.4188941784       -0.6071237176
 H        -8.3841044455       -2.6741926973        2.3170773540
 H        -9.6494197438       -1.4689395962        2.3329672879
 H        -8.6793530235       -1.7934892181        3.7211700448
 H        -6.0003768409       -1.1719248559        3.6615738317
 H        -5.3809737996       -0.4793435641        2.2002559524
 H        -5.9503592718       -2.1031596644        2.1667897394
 H        -6.2664830197        0.4149413481       -5.4081465448
 H        -7.4428119908       -0.5277746988       -4.5894836131
 H        -5.9637243206       -0.0977140179       -3.6762580726
 H        -7.3317928322        3.6009290554       -3.3578950738
 H        -6.4764793300        2.8993499031       -4.7104970039
 H        -5.8403231483        2.5556431243       -3.1239300424
 H       -10.2434899565        2.6984506234       -9.2150635621
 H        -8.7819314142        3.0762866063      -10.0642671422
 H       -10.2785819095        4.0104766505      -10.4298089357
 H        -7.9031400059        5.9244941126       -7.8148090733
 H        -8.3529859324        6.0436032689       -9.6207479787
 H        -7.3150678832        4.7465578671       -8.9691799857
 Na       -9.9402063528        3.2615497944        3.0435778579
