117

 C       -10.5657142265        6.2852361072       -7.1947694045
 C       -10.7072009857        5.2356352107       -8.1910341092
 O       -11.7437539715        4.8348937786       -8.6987625101
 C        -9.3957988912        4.3738999380       -8.5139473725
 C        -9.0330653514        3.6550571277       -7.1748635024
 O        -8.2514408102        4.1611583190       -6.4227496078
 C        -9.7881643231        2.4077393080       -6.8632961126
 C        -8.8016322097        1.5389864562       -6.0171886820
 C        -8.9339057432        1.8238985337       -4.5119773031
 O        -9.9645237959        2.1518354438       -3.9860960408
 C        -7.6671831558        1.4270648311       -3.6454754197
 C        -7.8830451543        1.1144208437       -2.0887471783
 O        -7.6025916715        2.0115010210       -1.2873366640
 C        -8.6691831037       -0.2461859143       -1.8473472355
 C        -8.9064595116       -0.6624245611       -0.2906314760
 C        -7.6614922845       -0.7266982361        0.5533590550
 O        -6.5369678138       -0.7867661591        0.0444624394
 C        -7.6060077466       -0.6761664327        2.1389328285
 C        -7.9567473796        0.8203871157        2.6056624200
 O        -9.0982221244        1.2200897915        2.4316442063
 C        -6.9484674858        1.7630588799        3.2397511869
 C        -6.6082501341        2.7836127617        2.0434037360
 C        -7.3703370698        4.0493761267        2.3587796246
 O        -7.8722097964        4.2188972119        3.4523022599
 C        -7.5801323024        5.1684641351        1.2362298551
 C        -8.8533407549        4.7967426695        0.4317414718
 O        -9.4660183000        3.7618807344        0.7335214867
 C        -9.3267047777        5.8046124537       -0.6064733944
 C       -10.8749902043        5.9908544455       -0.3556090188
 C       -11.1425295551        7.1735194885        0.6099612854
 O       -10.4442060604        8.1013698656        0.6243888331
 C       -12.4070881948        7.0154258666        1.4706106757
 C       -11.9718958933        6.1376257186        2.6598891153
 O       -11.8634069360        4.9366576115        2.5346435648
 C       -11.3345318614        6.9489261289        3.8278897084
 C       -10.6383600476        6.1178114403        4.8952562215
 C       -11.2351950448        4.8294840111        5.6123676534
 O       -10.8439075425        3.7386605022        5.3187629069
 C       -12.2452295567        5.0061253379        6.7773857281
 C       -13.7180500216        5.2238430461        6.1208137033
 O       -13.9961912933        6.3514381698        5.7370128000
 C       -14.7045127555        4.0516605035        5.9800964016
 C       -12.0939978614        3.7869894612        7.6395985506
 C       -11.8664070947        6.3173907571        7.5788082113
 C       -12.8214063588        8.4446353995        1.8990988700
 C       -13.5399253347        6.2668474714        0.6953340546
 C        -7.7058894364        6.6625470495        1.9183888854
 C        -6.3727186361        5.0199358990        0.2468006741
 C        -8.6768751399       -1.5743934941        2.7466168106
 C        -6.2633307910       -1.2081281415        2.6218528647
 C        -6.7888315236        0.2836258613       -4.2929247693
 C        -6.7600448045        2.7661965861       -3.7704057285
 C        -9.6672647101        3.4925338025       -9.7486691484
 C        -8.2572987205        5.4299415278       -8.7951717878
 H       -10.3732452533        7.2432218701       -7.6863298324
 H        -9.7355767177        6.0385704257       -6.5051856031
 H       -11.5173362194        6.3606392743       -6.6095549022
 H       -10.2498229215        1.8936360679       -7.6975126035
 H       -10.5104847668        2.7294636783       -6.1053899309
 H        -7.8383177811        1.5998146590       -6.4051673163
 H        -9.0115623934        0.4868632142       -6.1111143901
 H        -8.1038186308       -1.0587774148       -2.3972974097
 H        -9.5945614910       -0.1369427564       -2.5059902823
 H        -9.2335079201       -1.7767752586       -0.2522222342
 H        -9.5996140522       -0.0553213167        0.2784070246
 H        -5.9293594262        1.3777201000        3.5628069665
 H        -7.3650006653        2.4787263110        3.9814675243
 H        -6.9787539027        2.4335797660        1.0756579030
 H        -5.6033719511        3.1292167365        2.0326837902
 H        -9.1265775115        5.4444044786       -1.5588860101
 H        -8.8726327546        6.7409812404       -0.4277772030
 H       -11.2270014276        5.0460676762        0.1381874027
 H       -11.4245586471        6.1048689031       -1.3530248132
 H       -11.9733018136        7.6603293399        4.2845119068
 H       -10.6095364719        7.5910405029        3.3763356856
 H       -10.3828044168        6.8427730844        5.7099759937
 H        -9.6442356883        5.8907953080        4.5036939977
 H       -14.4924205427        3.3772767998        6.8482345686
 H       -14.6653513233        3.5704013436        5.0694438042
 H       -15.7513202242        4.3680697743        6.0289246801
 H       -12.2502636538        2.8986053412        6.9711664274
 H       -12.8780611772        3.6217347387        8.4451876178
 H       -11.0655067084        3.7587478050        8.0749796139
 H       -11.6716710838        7.2091286107        6.9645433763
 H       -10.9678454211        6.1432379093        8.1784303202
 H       -12.6162521921        6.5129031176        8.3478194633
 H       -13.1435449124        8.9623869338        1.0121980728
 H       -11.9605514642        9.0555593016        2.1802208390
 H       -13.5391955944        8.4461285777        2.6283178598
 H       -14.3477720374        6.2799006975        1.4526938280
 H       -13.3348263976        5.1940145815        0.5760504690
 H       -13.7704521657        6.6932128159       -0.2951332555
 H        -8.6776540381        6.8168777116        2.3601319414
 H        -7.4514960653        7.4668982359        1.2166009121
 H        -7.0091692887        6.5967843387        2.7166778581
 H        -5.4056162947        4.8116754633        0.7665200555
 H        -6.2523531893        5.8695460773       -0.3829839964
 H        -6.6259683241        4.2258797341       -0.4397502039
 H        -8.5343783491       -2.5651963591        2.4886874078
 H        -9.6435259616       -1.2648519592        2.5292946031
 H        -8.5774722453       -1.5730871685        3.7944128693
 H        -6.1995834515       -1.2942305593        3.7667968960
 H        -5.4817633634       -0.5837571340        2.2659476058
 H        -6.1223787644       -2.1117524640        2.1708905466
 H        -6.5936675036        0.4171645191       -5.3776187625
 H        -7.3160662908       -0.7299503353       -4.3892263729
 H        -5.8387873319        0.1564025646       -3.7891239893
 H        -7.3415991633        3.7067250974       -3.7078260368
 H        -6.3092439199        2.6740057711       -4.7723566979
 H        -5.9739939727        2.7462438397       -3.0380358285
 H       -10.2443545661        2.5995290958       -9.4379127264
 H        -8.6711422779        3.1151956018       -9.9967907733
 H       -10.1159553353        3.9940979443      -10.5795581880
 H        -8.3668486893        6.3478264276       -8.2178273359
 H        -8.0519938315        5.6339425461       -9.8150089942
 H        -7.3666809571        5.0003204627       -8.2954407942
 Na       -9.9609692542        3.2936252734        3.0319161538
