117

 C       -10.7763362589        5.8268869630       -6.9916575349
 C       -10.7260452288        4.6659829328       -7.9198401717
 O       -11.7001421667        3.9715862396       -8.1719995621
 C        -9.3040356854        4.1874488633       -8.4597152749
 C        -8.6711826518        3.2157154825       -7.4900417591
 O        -7.5015626548        3.2505812705       -7.1716089437
 C        -9.6066998113        2.1687803459       -6.8325943445
 C        -8.8355681086        1.1687657888       -5.9880302172
 C        -8.8278932635        1.5554852604       -4.5617597247
 O        -9.8778582646        1.8694833188       -4.0175749883
 C        -7.5701515348        1.5546880496       -3.5593919394
 C        -8.0347414937        1.4476259542       -2.1566853250
 O        -7.9730581780        2.3596137637       -1.3219659311
 C        -8.6951006925        0.1060889545       -1.8078281423
 C        -9.1141823174       -0.2599188574       -0.4396089634
 C        -7.9692959435       -0.4639268897        0.5860321860
 O        -6.8507311519       -0.5374814739        0.1274533360
 C        -8.2434333179       -0.6777364452        2.1173378085
 C        -8.2032250348        0.8200085809        2.6764581612
 O        -9.2484331435        1.2343143184        3.1727124231
 C        -6.8970902379        1.5945325782        2.5707648246
 C        -6.9541057693        2.6601949281        1.4843249061
 C        -7.4418608730        4.0012665281        2.1390113322
 O        -7.7725379653        4.0375473188        3.3203709524
 C        -7.5161044298        5.2095273897        1.1841382742
 C        -8.9590698463        5.0009065075        0.4475196555
 O        -9.7659760916        4.2201792201        0.8594605321
 C        -9.2582965772        5.9507974432       -0.8038893017
 C       -10.7479465447        6.3412128099       -0.8119268020
 C       -10.9503978993        7.1336941516        0.5127898896
 O       -10.1364060433        7.9447964803        0.8252431136
 C       -12.3011925785        6.9783212952        1.4448624229
 C       -11.7566038694        6.1234300745        2.5978304425
 O       -11.7502106125        4.9146441120        2.4092611702
 C       -11.2029570144        6.8535779971        3.9166821947
 C       -10.3128524362        5.9518369404        4.8622909274
 C       -11.0423003898        4.9450212351        5.7102545973
 O       -10.9885648068        3.7877896766        5.4141113411
 C       -12.0387165083        5.3650262051        6.8296640840
 C       -13.5242640391        5.5274401571        6.2837487269
 O       -13.8322133824        6.6044678157        5.7825287268
 C       -14.5092656177        4.4350793182        6.4453928608
 C       -11.9648766794        4.3075375527        7.9574993085
 C       -11.6547698017        6.8137842424        7.3467167984
 C       -12.8480440190        8.3975147311        1.7273931532
 C       -13.3599162906        6.1593524490        0.6383615296
 C        -7.5484819657        6.5094205500        2.0392867177
 C        -6.2687856705        5.1245623017        0.1393462794
 C        -9.5393452635       -1.4650346834        2.4299762311
 C        -6.9555897081       -1.4599562631        2.6163962843
 C        -6.4814858673        0.4384325415       -3.8816524411
 C        -6.8581325098        2.9240752943       -3.7918913256
 C        -9.5259560987        3.3568248348       -9.7826845989
 C        -8.3789407342        5.3673073399       -8.7639007074
 H        -9.8180176091        6.3051285514       -6.8066956241
 H       -11.1853760114        5.4777471577       -6.0153032267
 H       -11.3977175156        6.6639391328       -7.3928881042
 H       -10.2435237224        1.6472830327       -7.5244492990
 H       -10.3378425203        2.6530669574       -6.1904623827
 H        -7.8115824506        1.2237346064       -6.3011764166
 H        -9.2522911309        0.1315098199       -6.2199939101
 H        -7.9074924850       -0.6183430546       -2.0138891752
 H        -9.4641419765       -0.0193185691       -2.5134222213
 H        -9.7314189884       -1.1696743322       -0.4076745876
 H        -9.8052364029        0.4694262887       -0.0390452711
 H        -5.9480816719        1.1315512349        2.4089056683
 H        -6.7913030887        2.1547558146        3.4284629320
 H        -7.6398800359        2.4624678374        0.6027526281
 H        -6.0207547932        2.7885235722        0.9830193483
 H        -8.7036145364        5.4761218089       -1.6697865627
 H        -8.6466568534        6.9023026400       -0.6891684712
 H       -11.3638607558        5.4909651395       -0.9775896016
 H       -10.9256426114        7.0033565125       -1.6419865371
 H       -12.1184820845        7.2814727537        4.4541255989
 H       -10.5458474797        7.6794511562        3.5996372939
 H        -9.7918071514        6.5814454143        5.5715512844
 H        -9.6368120461        5.3964376197        4.2410746140
 H       -15.5355461980        4.7719259320        6.7935567690
 H       -14.1266555928        3.7072834497        7.0996429362
 H       -14.7384183285        4.0149574786        5.4527974697
 H       -12.2435894694        3.3742156424        7.5059624241
 H       -12.5155340451        4.5664630100        8.8549427636
 H       -10.9661088665        4.0814088551        8.2386074609
 H       -11.5844378806        7.5637173913        6.5719456524
 H       -10.6854925940        6.7391072201        7.8676171622
 H       -12.4581831464        7.1301020078        8.0063091874
 H       -13.2170160900        8.8835403687        0.8039690439
 H       -12.1479781687        8.9837354313        2.3802754022
 H       -13.7482087088        8.2729228755        2.2781497956
 H       -14.3632879120        6.3169547919        1.0377973436
 H       -13.1106967429        5.0942227646        0.5546506879
 H       -13.4660451144        6.5252083729       -0.3882105216
 H        -8.3873114550        6.3845424890        2.7408890672
 H        -7.8507445062        7.3082129357        1.3219220927
 H        -6.6103019945        6.7250656869        2.5602347054
 H        -5.4264667856        4.6176789292        0.6661283626
 H        -5.9713714199        6.1361814865       -0.0867617572
 H        -6.5432240053        4.5204054220       -0.7023751998
 H        -9.2294589094       -2.5207400342        2.3920627818
 H       -10.3523907890       -1.3793155299        1.6944267043
 H        -9.9010193735       -1.1909400537        3.4470442740
 H        -7.1444702965       -1.6779682881        3.7629538570
 H        -5.9988468889       -0.9126425942        2.5091458463
 H        -6.9162584850       -2.3927374082        2.1238067006
 H        -6.1917768370        0.4159172598       -4.8980366765
 H        -6.8307563296       -0.5237598792       -3.5446591914
 H        -5.6305229367        0.5988858337       -3.3024229878
 H        -7.4987423293        3.8337300343       -3.6534927729
 H        -6.4258817403        2.7728990757       -4.7741011971
 H        -6.0484838095        2.9722419170       -3.0704676335
 H       -10.0995756850        2.4510160439       -9.4928190443
 H        -8.6045208076        3.1392257510      -10.3019759582
 H       -10.1863100017        3.9110012586      -10.4295284853
 H        -7.4472095534        5.1374228023       -8.2798321652
 H        -8.6761321220        6.2098968708       -8.2034021566
 H        -8.3008676486        5.7749141064       -9.7765719329
 Na      -10.0264200383        3.3869390553        3.3434361332
