117

 C       -10.8345124548        5.7505632209       -6.9583249330
 C       -10.7222072796        4.5230295602       -7.8952997328
 O       -11.7510816689        3.9271868970       -8.1255046033
 C        -9.3392565733        4.1549783451       -8.4994516978
 C        -8.6379215444        3.1630726850       -7.4751526157
 O        -7.4220962763        3.2072946803       -7.2594651182
 C        -9.4509323183        2.0255778436       -6.8510313312
 C        -8.7895868187        1.0241871866       -5.9067030090
 C        -8.8139606816        1.4889415129       -4.4643818480
 O        -9.8326713220        1.8502096019       -3.9294208252
 C        -7.4871394714        1.5612366566       -3.5643437926
 C        -8.0190028669        1.4790181710       -2.1521062784
 O        -7.9950079983        2.4551277173       -1.3930942560
 C        -8.6812571774        0.0314256058       -1.7455782741
 C        -9.3019093168       -0.1269315112       -0.3947107154
 C        -8.0514261175       -0.4595007400        0.5523887250
 O        -6.9401172729       -0.5253434860        0.1131543569
 C        -8.2468123910       -0.6688182466        2.0797417025
 C        -8.2583010750        0.7495148528        2.7338107407
 O        -9.2344848785        1.2360671663        3.2150482007
 C        -6.9406527411        1.4785024053        2.5464073943
 C        -7.0764227695        2.5923927008        1.4906177415
 C        -7.3890219221        3.9640753876        2.0727756872
 O        -7.6603596194        3.9962608090        3.2355233627
 C        -7.4808991115        5.1969844098        1.1589986006
 C        -8.8511688231        5.0707276032        0.3907412566
 O        -9.6626804453        4.2852104337        0.8531469521
 C        -9.2846085975        5.9318691247       -0.7806150975
 C       -10.7364647306        6.3585160239       -0.7061063141
 C       -11.0308343779        7.2320766382        0.4789343430
 O       -10.1299392548        7.9953936910        0.8847233905
 C       -12.3021844635        6.9758213555        1.3388013976
 C       -11.8349544035        6.1221566294        2.5643623811
 O       -11.8993714594        4.8442167150        2.5838310821
 C       -11.2440790045        6.8314014501        3.7575877298
 C       -10.3897549293        6.0204117156        4.7850343261
 C       -11.1314316638        4.9286010080        5.6302879552
 O       -10.8449795617        3.7401153236        5.5326208271
 C       -12.0115102673        5.3795879210        6.8285282233
 C       -13.4951663781        5.6103199738        6.2702454462
 O       -13.8018329578        6.6610303358        5.7597311207
 C       -14.5673624099        4.5040019835        6.4319011640
 C       -11.8238884030        4.4280957027        8.0136041424
 C       -11.6563950863        6.8362516705        7.4085755812
 C       -12.7892109529        8.3334117247        1.8454582170
 C       -13.3794538102        6.2156351188        0.6075727470
 C        -7.4563944849        6.5236334196        1.9057957441
 C        -6.2277742097        5.0731706457        0.2383712936
 C        -9.5239838918       -1.4566855316        2.3687472899
 C        -7.0915815520       -1.5238468094        2.5988474557
 C        -6.4200270653        0.4626175786       -3.8804748696
 C        -6.8624844372        2.9807954606       -3.7847064573
 C        -9.5691997264        3.4433838954       -9.9141527639
 C        -8.3276919312        5.3698984729       -8.7638021710
 H        -9.8670652385        6.0846861247       -6.5430822116
 H       -11.5055515313        5.5674545468       -6.1452440950
 H       -11.1440405064        6.6055314843       -7.5257380140
 H       -10.0852238803        1.4585374348       -7.6160895574
 H       -10.2928076805        2.5402935393       -6.2519766234
 H        -7.6993160380        0.9796019937       -6.2008805181
 H        -9.2907046252        0.0453320170       -6.1211704183
 H        -7.9965656956       -0.7479473686       -1.8314466894
 H        -9.4536256551       -0.0037283210       -2.5209248041
 H       -10.1201556821       -0.8991755322       -0.3128059760
 H        -9.8091887106        0.7589404645       -0.0366075405
 H        -6.1050833220        0.9385649665        2.0779741242
 H        -6.4919430367        1.9356149085        3.4274999706
 H        -7.9454832048        2.4636452716        0.7709417847
 H        -6.2181074718        2.5938467465        0.7619329684
 H        -9.0649393093        5.3229587639       -1.6945982508
 H        -8.5371640679        6.7755645058       -0.9270106038
 H       -11.3011271793        5.4242277657       -0.6669606969
 H       -10.9047152332        6.7254871176       -1.7189192729
 H       -12.1234914781        7.3008676576        4.3039530191
 H       -10.5761727310        7.6403004197        3.3409031573
 H       -10.0617022825        6.7227049546        5.5596754420
 H        -9.5368789472        5.5620401318        4.2972914414
 H       -15.5676870404        4.9743854078        6.5966616823
 H       -14.3690139707        3.8335872898        7.3071295752
 H       -14.7461421722        3.9699620355        5.5038395771
 H       -12.1155421750        3.4680733916        7.7462952466
 H       -12.3613287795        4.7870505745        8.8639565760
 H       -10.7595241553        4.3116619769        8.2407777086
 H       -11.8757823135        7.6260081212        6.6338583269
 H       -10.6791830120        6.9152969388        7.8255722932
 H       -12.4197898000        7.0159568048        8.1399813988
 H       -13.1395880918        8.9552300538        1.0137589234
 H       -12.0110215583        8.7620755602        2.4753979215
 H       -13.6960004453        8.2189104745        2.4836333590
 H       -14.3564979091        6.4991769377        1.0304310384
 H       -13.2276970576        5.1709670134        0.7124165942
 H       -13.5477962557        6.4465946173       -0.4287129410
 H        -8.3830163054        6.5639203531        2.5084412097
 H        -7.4693954024        7.3778457948        1.1863247988
 H        -6.5738726997        6.5280220125        2.5485678715
 H        -5.2818229922        4.9756034943        0.7935200767
 H        -6.2591607038        5.9149636548       -0.3921548565
 H        -6.4193142658        4.1228279682       -0.3294507496
 H        -9.2342618458       -2.5357226252        2.5676137076
 H       -10.2303224240       -1.5551211007        1.5120757448
 H       -10.0278213255       -0.9905846152        3.2827856902
 H        -7.3675000255       -1.7861038599        3.5632315362
 H        -6.0896605513       -1.0720849881        2.6035986038
 H        -7.1084334901       -2.4641975714        2.0188458648
 H        -6.0340638085        0.6852921497       -4.8852774986
 H        -6.7563479045       -0.5230216415       -3.8154122308
 H        -5.6213680208        0.5532840614       -3.1458399886
 H        -7.6946080239        3.6307632426       -3.7452122832
 H        -6.3387659572        3.0026948241       -4.7927662745
 H        -6.2172520679        3.2324179540       -2.9623706305
 H       -10.1248544358        2.5692902777       -9.6232858421
 H        -8.6032572833        3.1538331729      -10.3614499238
 H       -10.1825455474        3.9793494209      -10.6063435084
 H        -7.6385341527        5.3959881885       -7.9266936653
 H        -8.8841253014        6.3423446904       -8.6677616029
 H        -7.8286729612        5.4397540485       -9.7167906433
 Na      -10.0530642123        3.5303194123        3.3514881991
