117

 C       -10.9070060434        5.4476572693       -6.7460339053
 C       -10.6980167304        4.2512269729       -7.7201594127
 O       -11.6004173061        3.4945295126       -7.9808825728
 C        -9.3044159351        3.9985911025       -8.4543940551
 C        -8.5805518458        2.8939380904       -7.5713416552
 O        -7.4084628555        3.1211231903       -7.3176917683
 C        -9.1734106073        1.5366910463       -7.2344660116
 C        -8.3721323016        0.9138988142       -6.1315837101
 C        -8.7863686392        1.5161496375       -4.6876671977
 O        -9.8909179269        1.9300121763       -4.5811469508
 C        -7.5912915417        1.6768995662       -3.6246599196
 C        -8.0989383770        1.6387481305       -2.1506203358
 O        -7.8742983293        2.4935774502       -1.3249143207
 C        -8.9227544779        0.2788768515       -1.7727288009
 C        -9.2961144701        0.0797174786       -0.3425942372
 C        -8.1928610898       -0.5067046777        0.5656232883
 O        -7.0535348213       -0.7352471404        0.1775351851
 C        -8.5920381044       -0.7592068477        2.1921763750
 C        -8.4697747127        0.6740527492        2.7626569209
 O        -9.5017221238        1.2856573949        2.9617278326
 C        -7.1499265764        1.4594772568        2.7613301589
 C        -6.8309250273        2.5043141727        1.6876844956
 C        -7.2032767043        3.9364890555        2.0491620334
 O        -7.3688502824        4.1038240600        3.2396674577
 C        -7.3307684792        5.1479238696        0.9909494272
 C        -8.8043798297        5.1104642502        0.5473012007
 O        -9.5840363893        4.4328272638        1.2083133279
 C        -9.2900819664        5.9756942920       -0.5802607702
 C       -10.7705512188        6.2455804929       -0.5405314494
 C       -11.0986863285        7.1425217124        0.6322112691
 O       -10.2153993592        7.8500871463        1.1235308556
 C       -12.3977072146        6.9403979956        1.3778195187
 C       -11.8770901442        6.2231383712        2.6931795595
 O       -11.9028937921        4.9530114833        2.7234764388
 C       -11.2897524377        7.0864268292        3.7629938615
 C       -10.3219875155        6.3402615750        4.6934908838
 C       -11.0239353760        5.2610227001        5.5502407746
 O       -10.8932446265        4.0588359164        5.2806293896
 C       -11.8808595176        5.6711113233        6.8466107979
 C       -13.3021786912        5.7923665426        6.2295115300
 O       -13.6205338189        6.7454513069        5.5477987476
 C       -14.2905771486        4.6866344567        6.5432756918
 C       -11.7557778661        4.5871458583        7.9991228990
 C       -11.5044440972        6.9684169583        7.5077930045
 C       -12.9915814082        8.3109116623        1.7581876968
 C       -13.4687782098        6.0762039966        0.6975587929
 C        -7.0502616106        6.5411724334        1.7249230507
 C        -6.3565288338        4.9765118570       -0.1906378419
 C       -10.0964351212       -1.2335679946        2.3344140419
 C        -7.6031642148       -1.7748388541        2.7588419910
 C        -6.5568086225        0.5580725267       -3.7586222490
 C        -6.9254849126        3.1224561309       -3.7521931800
 C        -9.5505712167        3.2847603797       -9.8406989006
 C        -8.3679520776        5.1883537004       -8.6824909229
 H       -10.5951455771        5.1958554938       -5.6801258248
 H       -12.0060005915        5.4790970054       -6.7079079970
 H       -10.5593816430        6.4747533475       -6.9550066562
 H        -9.3500788150        0.9772626046       -8.1442564263
 H       -10.1894763289        1.7048841837       -6.8684127219
 H        -7.3088519547        1.0413553777       -6.4482207175
 H        -8.6359894183       -0.1445600321       -6.0567504821
 H        -8.3598333830       -0.5228429588       -2.0537573241
 H        -9.9042003214        0.3072173649       -2.2372234628
 H       -10.1973579162       -0.6027891846       -0.3571874892
 H        -9.7700997077        0.9476726115        0.0849821144
 H        -6.3118366316        0.8059873919        2.7122010137
 H        -7.0770322006        1.9825805019        3.7117890400
 H        -7.1527469096        2.1686087491        0.6845245819
 H        -5.7167318553        2.7223032730        1.5726945394
 H        -8.8615151695        5.4814631989       -1.5071236386
 H        -8.6302043807        6.9033887698       -0.5142387926
 H       -11.2105881474        5.2620992335       -0.4882495022
 H       -11.0322645029        6.5864402515       -1.5106051871
 H       -12.1166107929        7.5481118386        4.3566091911
 H       -10.6901186444        7.8245342464        3.1766235733
 H        -9.7474863610        7.0308041645        5.3106811074
 H        -9.5548606715        5.8280166472        4.1194225180
 H       -15.0126609790        4.6482534945        5.7705735858
 H       -14.8976386782        5.0467823185        7.4297145985
 H       -13.8964839513        3.6879342051        6.6059767217
 H       -11.8766538436        3.5549154990        7.7266942945
 H       -12.4541970634        4.7573546967        8.7956324157
 H       -10.7175394143        4.7907353940        8.3189811048
 H       -11.6280042833        7.7350156165        6.7011414413
 H       -10.5777314100        6.8905277863        8.0162505528
 H       -12.2124350479        7.2588481682        8.2689277722
 H       -13.4932795241        8.6906697318        0.8648928227
 H       -12.2395397944        9.0223070151        2.0619347822
 H       -13.7030038463        8.1407472547        2.6136767571
 H       -14.4113161129        6.0974667557        1.2936713154
 H       -13.2568850911        5.0299324466        0.6046193066
 H       -13.8562111419        6.5325839555       -0.2179550134
 H        -7.6151151714        6.6368599416        2.6565881266
 H        -7.2614529662        7.3588729046        1.0348842916
 H        -5.9782003197        6.5583945645        1.9252790150
 H        -5.3845021419        4.8889311240        0.2500631970
 H        -6.4625684943        5.7779070878       -0.8822316878
 H        -6.5760340621        4.0352740454       -0.7464195398
 H       -10.2896213315       -2.1836806625        1.8563428848
 H       -10.6509703478       -0.4902048390        1.7873128717
 H       -10.3860435833       -1.2406071006        3.3689766635
 H        -7.6520052228       -1.8196995357        3.8006409166
 H        -6.5823115075       -1.4370478170        2.4394155573
 H        -7.8425843612       -2.8518212364        2.3971238793
 H        -6.1025743897        0.6668018126       -4.7277574676
 H        -6.8975718759       -0.4095012245       -3.7171866434
 H        -5.8475791953        0.7692939567       -2.9763847999
 H        -7.5922222176        3.8342037512       -3.3137628507
 H        -6.8538841264        3.3441471901       -4.8516595403
 H        -5.9540883430        3.0631962208       -3.2463534657
 H       -10.2785816547        2.4930186115       -9.7691811290
 H        -8.5809470088        2.8264344749      -10.1562476043
 H        -9.8383514167        4.0365771549      -10.5758913335
 H        -8.8512057055        6.1429947280       -8.7417636689
 H        -7.9569189435        4.9953808792       -9.6833262137
 H        -7.6164814321        5.3041783741       -7.9624026162
 Na       -9.9093481390        3.3933362682        3.3193488571
