117

 C       -10.7922150361        5.0989089851       -6.6285434774
 C       -10.6061243232        3.9117462001       -7.6627990829
 O       -11.4953945681        3.1242885376       -7.7991761149
 C        -9.2246058500        3.8151316467       -8.4955661087
 C        -8.4257993539        2.8667516253       -7.5411521990
 O        -7.4084159366        3.3975057043       -7.0849268425
 C        -8.8416551712        1.3965713503       -7.4200642474
 C        -8.3918497355        0.7714553417       -6.0218873922
 C        -8.7829907479        1.4671060984       -4.8345516543
 O        -9.7731878148        2.0700283473       -4.5829786459
 C        -7.6018701713        1.6169792115       -3.6885882421
 C        -8.2751924850        1.4236921579       -2.3156539167
 O        -8.2017598909        2.2902073178       -1.4573396494
 C        -9.0726323228        0.1386628157       -2.0468645784
 C        -9.4979512395        0.1767753214       -0.4983809872
 C        -8.4552580955       -0.4702944917        0.3891730412
 O        -7.3783787668       -0.9208020612        0.0105678862
 C        -8.7784231948       -0.5449145023        2.0259109266
 C        -8.6182122857        0.9827461665        2.6151972307
 O        -9.6193410104        1.6493802770        2.7245734054
 C        -7.1832680174        1.4734490781        2.9441261166
 C        -6.7634259102        2.4295246889        1.8778836681
 C        -7.3101560712        3.8518945095        2.1971156055
 O        -7.6089219700        4.2000182271        3.3061299753
 C        -7.3360372190        5.0026701943        1.0833258166
 C        -8.7977002916        5.0713466919        0.6131628913
 O        -9.5516593323        4.4088814107        1.3303473574
 C        -9.2467519885        5.8726049636       -0.6064567983
 C       -10.7459308917        6.1776680881       -0.6436887629
 C       -11.0826725544        7.0734693266        0.5895393303
 O       -10.3382554902        8.0304221243        0.9213416682
 C       -12.3398092879        6.8535271409        1.4688104738
 C       -11.7189920086        6.3755321144        2.7814311487
 O       -11.7493770822        5.1076239520        2.9262659144
 C       -11.1629070531        7.2118330224        3.8971891459
 C       -10.1624593572        6.4508696439        4.8336651223
 C       -10.8770156278        5.3852428711        5.6204339318
 O       -10.7554116944        4.1776033130        5.3745084094
 C       -11.7642973904        5.7536925844        6.8048543457
 C       -13.3418252725        5.9228683410        6.2520299362
 O       -13.6985679461        6.9362608859        5.7046942173
 C       -14.2298602795        4.6309997938        6.5425907488
 C       -11.6139891434        4.7136423823        7.9463644218
 C       -11.4485916278        7.1579563952        7.3714163900
 C       -13.0867149987        8.2125192977        1.6114126422
 C       -13.3684742294        5.8428061714        0.9098541297
 C        -6.7911662217        6.2941940298        1.7664088318
 C        -6.4115669404        4.5066714964       -0.0821475019
 C       -10.1807656610       -1.1339966906        2.1306083149
 C        -7.7543022261       -1.4823725416        2.6898305769
 C        -6.4192347202        0.5908382567       -3.7379443250
 C        -7.0115933341        3.0459677199       -3.8826870617
 C        -9.5729361907        3.0772236741       -9.8301312115
 C        -8.4971917529        5.1266628050       -8.7483014879
 H        -9.9027212504        5.4410116010       -6.1268607062
 H       -11.5252244862        4.9768833426       -5.8857653020
 H       -11.2197063184        5.8852210045       -7.2165247880
 H        -8.4947198278        0.8463717650       -8.2659473929
 H        -9.8880206182        1.3081312613       -7.5253276611
 H        -7.3629158649        0.6331300000       -5.9871211294
 H        -8.9065265004       -0.1882213352       -6.0337971005
 H        -8.5640790761       -0.8242977554       -2.3003163395
 H       -10.0584888983        0.3748205569       -2.5661648163
 H       -10.5146962756       -0.2569487419       -0.3586783875
 H        -9.6954066281        1.2064679398       -0.1780925686
 H        -6.4024551371        0.6734995751        2.9605868604
 H        -7.1769086209        2.0079048089        3.8836481870
 H        -7.1479132114        2.2226933541        0.9023553280
 H        -5.7167817784        2.4691640804        1.8349535637
 H        -8.8421914628        5.2460311582       -1.3578234888
 H        -8.6509841444        6.7600453594       -0.6518167822
 H       -11.2705259177        5.2340504828       -0.7327230819
 H       -10.9235821927        6.7258079765       -1.5775856143
 H       -12.0303435533        7.5405407835        4.4736968315
 H       -10.6262132241        8.0053020584        3.4808110549
 H        -9.6740568102        7.1672406957        5.5335177989
 H        -9.2828935047        6.0499614617        4.3402910862
 H       -14.8631619859        4.2648678239        5.7398932425
 H       -14.9378562380        4.9158386941        7.3382216227
 H       -13.6179687171        3.8263757747        6.8741702745
 H       -12.0266852698        3.7854186395        7.6276517007
 H       -12.2996389377        5.0350996832        8.7521011071
 H       -10.5561044476        4.6661287235        8.3005756666
 H       -11.9412226479        7.9229948198        6.6992368104
 H       -10.4011879527        7.3167907588        7.5336152233
 H       -11.8487512966        7.1705251621        8.3680411083
 H       -13.3570194427        8.5842669228        0.6379659359
 H       -12.4788049826        8.9891384977        2.0362288656
 H       -13.9195134965        7.9630882765        2.2293936637
 H       -14.3262744825        5.9437618032        1.4747276010
 H       -13.1660469401        4.8073680023        1.0373687730
 H       -13.5840026335        6.0311702174       -0.1351804201
 H        -7.2517756125        6.4167371152        2.7377755259
 H        -7.0905392700        7.0890143509        1.0659635207
 H        -5.7259533938        6.3152960691        1.8351207544
 H        -5.4018428643        4.2669140145        0.3367770059
 H        -6.3128304156        5.2745914067       -0.7929891087
 H        -6.9092729855        3.6792478092       -0.6593707021
 H       -10.2787091844       -1.8727206007        1.3159752919
 H       -10.8831607062       -0.3281523719        1.9881755047
 H       -10.3478610191       -1.6514206478        3.0874669302
 H        -7.7074784094       -1.3084309213        3.6935848666
 H        -6.7380720172       -1.4713782111        2.2534633115
 H        -8.1885638627       -2.5154117259        2.5739087219
 H        -5.5994631900        1.0225130852       -4.4336258391
 H        -6.7006659268       -0.3841840748       -4.1533338364
 H        -5.9379226399        0.5282732423       -2.7170336205
 H        -7.8085363731        3.7102381585       -4.0733824270
 H        -6.2964149796        3.0490450988       -4.7533630135
 H        -6.5643945453        3.2506087959       -2.9546239586
 H        -9.9587439367        2.0596213565       -9.7173930899
 H        -8.7019179945        3.0282566525      -10.5007969102
 H       -10.3019705631        3.7105796747      -10.2665098793
 H        -8.8393612106        5.6285713275       -9.6630463378
 H        -7.4269246512        4.9165984340       -8.9927669253
 H        -8.6451406533        5.8312121522       -7.9284689873
 Na       -9.7669184587        3.9154743212        3.4513867682
