117

 C       -10.7932590598        4.8476600851       -6.6225404674
 C       -10.5584497919        3.7889117087       -7.6077752251
 O       -11.4043334596        2.8983197490       -7.7410788454
 C        -9.2317793916        3.6598852159       -8.4653448973
 C        -8.3753418758        2.8486455762       -7.5060645726
 O        -7.5226741541        3.2949118876       -6.7641168338
 C        -8.7919184916        1.3877058337       -7.4117134513
 C        -8.1859356599        0.6739266779       -6.2119091085
 C        -8.5359545799        1.4829053158       -4.9149789762
 O        -9.6874094416        1.8989539046       -4.7941320705
 C        -7.5810748505        1.6109051380       -3.6752861459
 C        -8.3448352275        1.4542732606       -2.3090074775
 O        -8.4218721720        2.3917992772       -1.5006481738
 C        -9.1715848212        0.2171752653       -2.0622952568
 C        -9.6905717822        0.0452565193       -0.6339816908
 C        -8.5757399522       -0.4753736587        0.3331118609
 O        -7.5904439678       -0.8699873982       -0.2132157237
 C        -8.9021368762       -0.5316882462        1.9226761364
 C        -8.7085095579        0.9544019473        2.5295537543
 O        -9.6928667601        1.7096384481        2.5090284071
 C        -7.3535754841        1.4107368623        3.0538288836
 C        -6.7300943931        2.3941223735        1.9517203382
 C        -7.1971230555        3.8809826880        2.2249296843
 O        -7.4521719674        4.2213829885        3.3903086463
 C        -7.2549645448        4.8979613840        1.0429406664
 C        -8.7484666302        4.9341431163        0.5913455021
 O        -9.6899514787        4.4617222125        1.1794223477
 C        -9.0778423145        5.8520860486       -0.6585853763
 C       -10.5771219954        6.1706241795       -0.6213157097
 C       -10.9262427011        7.1157825537        0.5110265548
 O       -10.3788217563        8.1744362078        0.7112785315
 C       -12.2574536817        6.8341792187        1.4489582508
 C       -11.8426092968        6.2618241130        2.8475952960
 O       -11.8924238892        5.1164390909        3.0967378272
 C       -11.1801421487        7.2589329279        3.8245685019
 C       -10.2952945441        6.5958932385        4.8518946298
 C       -10.8438314251        5.5609856558        5.8418316888
 O       -10.5462911822        4.3969160413        5.7350031421
 C       -11.7431061687        5.9299616991        7.0158329694
 C       -13.2899615912        5.9180031226        6.3574550830
 O       -13.6230461282        6.8982100263        5.7550001860
 C       -14.1870757455        4.6532488107        6.4681561721
 C       -11.6941496301        4.8928039413        8.1488263466
 C       -11.3909235006        7.4200125220        7.4942737361
 C       -13.0264015784        8.2199846353        1.7283111075
 C       -13.1687096452        5.8022151651        0.8149591583
 C        -6.8629819900        6.3194979372        1.5189040864
 C        -6.3223610397        4.5879445676       -0.1503876202
 C       -10.4267246340       -0.8319486865        2.2399325813
 C        -7.8748998142       -1.5253528019        2.4826139159
 C        -6.4552897771        0.5115085680       -3.8692609391
 C        -6.9314846901        3.0357864031       -3.6112613635
 C        -9.5601006652        2.9444526087       -9.8444228215
 C        -8.5401482972        5.0698919169       -8.8611944338
 H       -10.2249637650        5.7374698101       -6.8745470881
 H       -10.3285096247        4.5690224006       -5.6291714931
 H       -11.8521415272        5.0012442594       -6.3137043455
 H        -8.3411794835        0.8273685661       -8.2531931686
 H        -9.8749271526        1.1864175057       -7.5177232805
 H        -7.1010758033        0.6409734266       -6.4802653628
 H        -8.5813201984       -0.3358592558       -6.2916743105
 H        -8.5403228300       -0.6446567285       -2.1767845726
 H        -9.9528916023        0.2844437282       -2.7393901311
 H       -10.6083701612       -0.5265258338       -0.6740824949
 H       -10.0384388797        1.0517874784       -0.3024983400
 H        -6.6461741617        0.6248126030        3.2181774207
 H        -7.5986777910        1.9870680957        3.9506093381
 H        -7.0451638931        2.1381950563        0.9135363759
 H        -5.6144615891        2.4108278002        2.1130327203
 H        -8.7504834158        5.4331906587       -1.6824066907
 H        -8.4827352357        6.7976422324       -0.4795279172
 H       -11.0748053902        5.2128746117       -0.5455200590
 H       -10.8060861135        6.5703499001       -1.5967456897
 H       -11.9773038130        7.7436114788        4.3896972708
 H       -10.5328689984        8.0141130797        3.2947053098
 H        -9.8520607980        7.3714741185        5.4497241203
 H        -9.4127953270        6.1292214141        4.4012408292
 H       -15.0461234229        4.7677415458        5.7792482683
 H       -14.6001649481        4.4183739970        7.4214057942
 H       -13.4995510723        3.8547739286        6.1577695846
 H       -11.5385488808        3.8940154052        7.6400810543
 H       -12.6727699449        4.8551239628        8.6683668656
 H       -10.9049766976        5.1287500821        8.8478409621
 H       -11.6713227572        8.0826144131        6.7197471893
 H       -10.2877656473        7.5490483980        7.7113277118
 H       -11.9739698445        7.5646336215        8.4317125622
 H       -13.6761332452        8.4548545502        0.8861464624
 H       -12.2637082856        9.0005160162        1.7045045885
 H       -13.5934906726        8.1742708767        2.6354741226
 H       -13.9399756351        5.4208088487        1.4590058411
 H       -12.5789795031        4.8668349896        0.5715911192
 H       -13.5175160052        6.0957254486       -0.1886042344
 H        -7.6219310490        6.6580019109        2.2097948550
 H        -6.6877763757        7.0127800073        0.7299638329
 H        -5.9773367460        6.2082183256        2.1470141965
 H        -5.2997951046        4.7577551787        0.1626758541
 H        -6.4689103548        5.3275793527       -0.9949682449
 H        -6.4857461346        3.6332982868       -0.5627918085
 H       -10.6059857440       -1.8651303959        2.1805262197
 H       -11.1180694485       -0.2402979088        1.6885935102
 H       -10.6128669407       -0.5802185484        3.2506986714
 H        -7.5570991426       -1.3804256620        3.6153976068
 H        -6.9641124414       -1.4237400401        1.8721401266
 H        -8.2188298163       -2.5076169775        2.2912272567
 H        -5.8459068672        0.6541842950       -4.7088070531
 H        -6.9243725394       -0.5035817321       -3.8716243071
 H        -5.8164477569        0.5962495172       -3.0219820339
 H        -7.7132955325        3.7167831580       -3.1856728474
 H        -6.6208069609        3.2999895964       -4.5751028250
 H        -6.1063124251        2.9571946775       -2.8661745021
 H       -10.1608934801        2.0360443711       -9.6546314737
 H        -8.6500324947        2.6488304180      -10.3395721188
 H       -10.1857974079        3.6136734101      -10.4742476990
 H        -9.2738623448        5.7355463095       -9.3198308018
 H        -7.7180470980        5.0389948246       -9.5278519280
 H        -8.2382886200        5.5669727261       -7.9209135833
 Na       -9.7805197582        3.8472584410        3.5252892595
