117

 C       -10.9016166620        4.5619085167       -6.4498639230
 C       -10.7511754516        3.5580929370       -7.6362303371
 O       -11.6275536567        2.7997905531       -7.9251982273
 C        -9.3025373632        3.4526396421       -8.4999943139
 C        -8.3459061120        2.7405095172       -7.4464613310
 O        -7.6253527987        3.3772334992       -6.7070028916
 C        -8.2459342146        1.1519783729       -7.4310233034
 C        -7.6594780820        0.6789475093       -6.1348309164
 C        -8.3027143998        1.1836818794       -4.8837721178
 O        -9.4479645414        1.6132634821       -4.9129491034
 C        -7.5034189250        1.4268930257       -3.4840533161
 C        -8.4796169232        1.5001787845       -2.2664141701
 O        -8.4752270174        2.4274898264       -1.4274723111
 C        -9.5590437074        0.4688020906       -2.1091770404
 C        -9.9805605650        0.0726696705       -0.7151819139
 C        -8.7865828641       -0.3374502609        0.1502952683
 O        -7.6655550041       -0.5320254828       -0.2073734746
 C        -9.1951947529       -0.4378641161        1.6389213043
 C        -8.8462848998        0.9420754366        2.2860318472
 O        -9.7970274986        1.7169492911        2.4828263406
 C        -7.5251427359        1.3442413445        2.7443538977
 C        -6.9272548610        2.3699278928        1.7798626250
 C        -7.2457723765        3.8683414131        2.1474988169
 O        -7.5845828893        4.1085302393        3.3151828946
 C        -7.1917643266        4.9920110387        1.0141777472
 C        -8.6926157469        5.1317094596        0.7044261325
 O        -9.6165183522        4.6863252751        1.3927015611
 C        -9.0773249105        5.7235651943       -0.7112892515
 C       -10.5810165772        6.0787748227       -0.6159030305
 C       -10.9112674129        7.0486305878        0.6115460243
 O       -10.1622131860        7.9511934519        1.0332112584
 C       -12.2263081727        6.7996129152        1.4314793044
 C       -11.6546923291        6.2818681764        2.8080879853
 O       -11.6057553555        5.0922140936        2.9703119699
 C       -11.1378219345        7.3125302183        3.8437423614
 C       -10.1560577395        6.8426964715        4.8755682466
 C       -10.7681588632        5.9092956752        5.9446596698
 O       -10.4936553907        4.7292492041        5.8600059776
 C       -11.7063122938        6.2961460578        7.1158648031
 C       -13.1701980202        6.1151295144        6.4017795414
 O       -13.5547823067        7.0343725713        5.7372422130
 C       -13.7968649628        4.7284143114        6.2959223333
 C       -11.4953234479        5.2447922946        8.2690571976
 C       -11.5106427499        7.6943900832        7.5420020863
 C       -12.9721104857        8.0948375866        1.5625167898
 C       -13.0844043349        5.6796300902        0.7985885387
 C        -6.6719448990        6.4005643568        1.5263657448
 C        -6.3943011403        4.5884294607       -0.2633981916
 C       -10.6550106365       -0.7055431369        1.8265065580
 C        -8.4319049528       -1.5738042963        2.3189264446
 C        -6.4909920842        0.2449286659       -3.1532653967
 C        -6.8318330923        2.7955393793       -3.5351332949
 C        -9.5915395296        2.6408922331       -9.7596253440
 C        -8.7093329957        4.8683209045       -8.9039649836
 H       -11.9105075752        4.7646389306       -6.2239193058
 H       -10.5798315265        5.5354321313       -6.8047009576
 H       -10.3461628265        4.3057097465       -5.5539354409
 H        -7.7828426186        0.8112357295       -8.3009870565
 H        -9.1791269788        0.6955516776       -7.3999272978
 H        -6.5932998726        0.8381915851       -6.1253792395
 H        -7.7704879575       -0.3850965807       -6.1002925749
 H        -9.1392419110       -0.4464396942       -2.5517931989
 H       -10.3938779285        0.7677323971       -2.6515239029
 H       -10.7716835166       -0.6512743322       -0.8505305939
 H       -10.4734692226        0.9931207688       -0.3462865802
 H        -6.9323733676        0.4462631008        2.7738082018
 H        -7.6079549935        1.7899102605        3.6839876745
 H        -7.3318401271        2.3256586948        0.7669467889
 H        -5.8421735817        2.3448512089        1.7642642546
 H        -8.9270687954        4.8924582309       -1.4540869459
 H        -8.5301175801        6.6518452326       -0.9755478906
 H       -11.1635312969        5.1994711738       -0.5505222594
 H       -10.8621732750        6.6426683079       -1.4907284010
 H       -11.9772773942        7.7327671436        4.3249728844
 H       -10.6273734491        8.1024474042        3.2757500081
 H        -9.7887717384        7.7157558391        5.3924451712
 H        -9.3014204958        6.3157025724        4.4558776217
 H       -14.9070933820        4.7003048082        6.3043423212
 H       -13.3944001393        4.0691742232        6.9668421218
 H       -13.3128610297        4.3711159082        5.4050795050
 H       -11.5068747051        4.2264090060        7.8138124277
 H       -12.1843748012        5.4420171499        9.1234881374
 H       -10.4867654659        5.2615371381        8.6586276331
 H       -11.6140605829        8.3301479639        6.7086701637
 H       -10.4601067219        7.8706305637        7.8638791955
 H       -12.3306628055        7.8658432036        8.2492336133
 H       -13.2372987574        8.5193735695        0.6050110325
 H       -12.3629251691        8.7429569756        2.1950611085
 H       -13.8811247288        7.8689802751        1.9967477901
 H       -13.9144113189        5.5840407846        1.4612274482
 H       -12.5741126993        4.7039086380        0.6551251980
 H       -13.4900734103        5.8527071909       -0.1977132037
 H        -7.0247919294        6.4800716663        2.5399174907
 H        -7.1120354810        7.2242366959        0.9752247617
 H        -5.5990373869        6.5026948029        1.5106775573
 H        -5.3738531661        4.2863535479        0.0089871679
 H        -6.1835658829        5.5043772122       -0.8802161199
 H        -6.8363964011        3.8341143205       -0.8676522811
 H       -11.1077290827       -1.4391000120        1.1969800123
 H       -11.1785395034        0.2260925150        1.8370016980
 H       -10.7620205405       -1.0755378131        2.8275395080
 H        -8.3415714897       -1.4685045650        3.4234286839
 H        -7.3731680977       -1.5646914466        1.9106070313
 H        -8.7887599478       -2.5500367413        2.0279414189
 H        -5.5193172258        0.5013324691       -3.6154759079
 H        -6.9445893615       -0.7451173019       -3.5133813790
 H        -6.3501394037        0.1123836122       -2.0577936300
 H        -7.5265655528        3.5216316770       -3.9623586401
 H        -6.0147014667        2.5815342410       -4.1768035451
 H        -6.4467318131        3.0722320296       -2.5747839040
 H       -10.2128575125        1.7383961200       -9.6716575467
 H        -8.6531466309        2.4311286292      -10.2121935656
 H       -10.1235776399        3.2988726917      -10.4566272353
 H        -9.4615776123        5.4198612283       -9.4891632019
 H        -7.8186196598        4.7159383534       -9.4848899711
 H        -8.2973195568        5.4534251160       -8.0334854403
 Na       -9.7859855875        3.8258090245        3.7208277844
