117

 C       -10.8203805601        4.4123791591       -6.4910127875
 C       -10.7446811432        3.3844132834       -7.6147019386
 O       -11.7357498920        2.8627683229       -8.1341802720
 C        -9.3141386846        3.3102023135       -8.3778477187
 C        -8.2181806834        2.6974319513       -7.3840856032
 O        -7.6327919530        3.4914721835       -6.6750569459
 C        -8.1555401470        1.2191232693       -7.2693702763
 C        -7.3553956839        0.7799195608       -6.0301013281
 C        -8.2113101087        1.2496341844       -4.8071601102
 O        -9.4525563240        1.3261749664       -4.8187914272
 C        -7.4441114026        1.4368689896       -3.5105239674
 C        -8.5291280106        1.5105630217       -2.3385359568
 O        -8.4668004286        2.3430614070       -1.4787189780
 C        -9.6525948631        0.4940677796       -2.3022583109
 C       -10.1653867631        0.2832348668       -0.7847513495
 C        -9.0339688979       -0.2239277448        0.1445978000
 O        -7.8872291614       -0.2498404990       -0.2289988316
 C        -9.3390101659       -0.3859419290        1.6941120212
 C        -9.0450485811        0.9581651714        2.4041299082
 O        -9.8517860324        1.7878154727        2.7272413384
 C        -7.5244893331        1.2760282945        2.5720991045
 C        -7.1502213437        2.3410326254        1.5204908942
 C        -7.2723003873        3.7776726993        2.0591268152
 O        -7.4233840627        4.0415953734        3.2230031040
 C        -7.2104716570        4.9726279391        1.0036553647
 C        -8.7408810090        5.2166546890        0.6897569662
 O        -9.5832350626        4.9104129159        1.4963582108
 C        -9.0939938583        5.8311601644       -0.6072980663
 C       -10.5662384803        6.1923268568       -0.6937214937
 C       -10.8374825351        6.8726128905        0.6568409212
 O       -10.0276337270        7.6400244994        1.0324487874
 C       -12.2109168558        6.7523625291        1.4883639261
 C       -11.7496386825        6.3827309358        2.9116535942
 O       -11.6695919804        5.2101361264        3.2104285985
 C       -11.1814515564        7.4686464359        3.8187028703
 C       -10.1334496219        6.8628623703        4.7875737977
 C       -10.6797933793        5.8399466303        5.7846303550
 O       -10.4554268940        4.6409331508        5.6983132091
 C       -11.5997361316        6.3006516137        6.9361076575
 C       -13.0898118556        6.1775506886        6.3464774674
 O       -13.6420698851        7.1353567925        5.8292682949
 C       -13.6851733440        4.7707053641        6.2744426267
 C       -11.4535187179        5.5134649434        8.2368444018
 C       -11.4063016378        7.7972753429        7.3328882084
 C       -13.0088010608        8.1329961899        1.4583889215
 C       -13.1712465951        5.6839708811        0.9712471682
 C        -6.6436199737        6.1337828722        1.7776686985
 C        -6.2790229911        4.6052778837       -0.2273360463
 C       -10.7925037359       -0.7242227503        1.8769672118
 C        -8.4472859446       -1.5764393919        2.1944056735
 C        -6.6191913384        0.1330326700       -3.1819924256
 C        -6.4921258346        2.7030441743       -3.6075490410
 C        -9.5046338663        2.2651389352       -9.6116980118
 C        -8.9305213057        4.7081019556       -8.8222768134
 H       -11.3262276780        4.0364253749       -5.5400444373
 H       -11.3513522261        5.3667035503       -6.7099560591
 H        -9.7686235017        4.5841663141       -6.1888098827
 H        -7.6376433559        0.8623397735       -8.2585304705
 H        -9.2231642183        0.7461388272       -7.2628488844
 H        -6.3684401740        1.2981230807       -6.1551907750
 H        -7.0837011748       -0.3144567314       -6.0674289684
 H        -9.3959766833       -0.4539672947       -2.7712395093
 H       -10.4967492586        0.8834676353       -2.9896758082
 H       -11.0020452467       -0.4215415575       -0.9289961545
 H       -10.5758718543        1.2180258224       -0.4685032648
 H        -6.8873404906        0.3912617120        2.4207369282
 H        -7.3686553393        1.7238927727        3.6242185649
 H        -7.6496633952        2.3669668542        0.5276527516
 H        -6.0338114875        2.3171452901        1.3556688906
 H        -8.7914063964        5.1273855206       -1.3855307773
 H        -8.5297159290        6.7773065996       -0.6781718493
 H       -11.2008628789        5.2525873991       -0.7772886362
 H       -10.8375410431        6.9439823133       -1.4860186041
 H       -12.0509576609        7.9695683225        4.3656334847
 H       -10.6683088804        8.2272422744        3.2053072234
 H        -9.6983920556        7.6772546381        5.3908081749
 H        -9.3440292199        6.3468325882        4.2152935620
 H       -14.7093563112        4.9296878119        6.0197808849
 H       -13.5621316090        4.1507939481        7.2110566664
 H       -13.1332575673        4.1617080915        5.5382061161
 H       -11.3518912311        4.4394153391        8.1671629516
 H       -12.3278744937        5.8382982034        8.7595338280
 H       -10.5889014945        5.8623318159        8.8424202155
 H       -11.8367933002        8.4356764805        6.5189832736
 H       -10.3711993672        8.0579166575        7.3726738301
 H       -11.9942903904        7.9838183645        8.2219427587
 H       -13.5367544061        8.1387824823        0.5264192264
 H       -12.3815492122        8.9670980771        1.6564284537
 H       -13.8427777758        8.0970181479        2.2267167424
 H       -14.1493101390        5.7313731389        1.5066370759
 H       -12.7701078431        4.6766244416        0.9174937902
 H       -13.4590781406        5.9001813191       -0.0765063597
 H        -6.8347644323        6.0980352248        2.8485212903
 H        -7.1439259274        7.0453441214        1.4690215192
 H        -5.6003280794        6.2768075239        1.5099515352
 H        -5.2174660393        4.5463019797       -0.0334798948
 H        -6.3937873399        5.3361307579       -1.0051710730
 H        -6.5346368172        3.6230738248       -0.6896315780
 H       -10.9702463739       -1.6620204601        1.3761778515
 H       -11.3927767019       -0.0191868992        1.3071573439
 H       -11.1136307359       -0.8265229062        2.8930796603
 H        -8.3536926152       -1.5549624656        3.2994203547
 H        -7.5111102758       -1.7807803679        1.7565839469
 H        -9.0625658043       -2.4720544939        2.0427263734
 H        -5.8446398751        0.1252350859       -3.9171782841
 H        -7.1253927288       -0.7899008444       -3.1870917102
 H        -6.1745700477        0.2914665994       -2.2208194941
 H        -7.1364778924        3.5013090670       -3.9790785193
 H        -5.5697299778        2.5369823889       -4.1841466208
 H        -6.2471682047        2.8996097053       -2.5354301140
 H        -9.6046207005        1.2170290276       -9.3783587991
 H        -8.6928981553        2.4267029280      -10.3619115615
 H       -10.4222852527        2.5162736518      -10.1671157221
 H        -9.5279868207        4.8550927787       -9.7043354547
 H        -7.8596310991        4.7841861482       -9.0531751989
 H        -9.0984916934        5.4649499831       -8.1261206759
 Na       -9.6388087579        3.8632721266        3.7788320511
