117

 C       -10.7797907505        4.2378945779       -6.4565167478
 C       -10.7763339579        3.3798870844       -7.6803444555
 O       -11.8281789187        2.8941868584       -8.0399047238
 C        -9.4102578433        3.2169047437       -8.4289510092
 C        -8.2939704004        2.6904747519       -7.3671968786
 O        -7.6979571574        3.5011128968       -6.7122659812
 C        -8.0584157836        1.2197100472       -7.3130765814
 C        -7.2856207200        0.9625426055       -6.0182230733
 C        -8.1374565326        1.1823329220       -4.7746829967
 O        -9.3638069368        1.2271391441       -4.9058610298
 C        -7.4211026644        1.3728477770       -3.3889775582
 C        -8.5211080418        1.5221771122       -2.2413977006
 O        -8.3987193306        2.4911456698       -1.4548413518
 C        -9.6217695347        0.4618265755       -2.2165808734
 C       -10.2767674260        0.3409887011       -0.7632135925
 C        -9.1215391698       -0.0436599272        0.1607195943
 O        -8.0017192451       -0.1522324981       -0.2423387408
 C        -9.5178537176       -0.3803500906        1.6358053634
 C        -9.0649178304        0.9487471806        2.3577987443
 O        -9.9351779251        1.6366598493        2.8927934303
 C        -7.5354524989        1.2749594235        2.4636218367
 C        -7.1006006286        2.2803659835        1.4329850628
 C        -7.1642737601        3.6822454724        2.0031440995
 O        -7.1781421243        3.8465108776        3.2462983815
 C        -7.1984699727        4.9193622891        1.0439066826
 C        -8.6786068816        5.1928004454        0.6527944355
 O        -9.5769646527        5.0237854795        1.4650770833
 C        -9.0357637279        5.8187342689       -0.7381085368
 C       -10.5771893681        6.1688263785       -0.6536459066
 C       -10.9065465104        6.9801994370        0.6555326118
 O       -10.0815866730        7.6914680081        1.1758608851
 C       -12.2495224651        6.7435377073        1.4364250850
 C       -11.7634778380        6.3849302161        2.9423236651
 O       -11.8634396716        5.2468928725        3.3146097560
 C       -11.1346791566        7.4858162652        3.8273176318
 C       -10.0680396420        6.8483069413        4.6385753610
 C       -10.6257451829        5.8951848734        5.7728773156
 O       -10.4046939915        4.7201139480        5.6799357401
 C       -11.6250069623        6.3731347189        6.9456802006
 C       -13.0762152274        6.1850659507        6.3139493825
 O       -13.6333198960        7.1791934082        5.9183526471
 C       -13.6504273056        4.7631533645        6.3103435680
 C       -11.5022118742        5.5461962473        8.2260021626
 C       -11.4023517466        7.9268757260        7.1788685359
 C       -12.8789833087        8.1579919467        1.4607908664
 C       -13.1973605375        5.6099203929        1.0350486671
 C        -6.6276769327        6.1798238594        1.7880260752
 C        -6.3112739452        4.6906290227       -0.1737152324
 C       -10.9668068193       -0.7307224444        2.0131532074
 C        -8.5369561240       -1.4672766511        2.1111153368
 C        -6.6135422796        0.0874472521       -3.1670740615
 C        -6.4662390144        2.5889275170       -3.6233129012
 C        -9.3082816894        2.2055569890       -9.6226414375
 C        -8.9699541366        4.5687539683       -8.8922293533
 H       -10.9590029468        3.6883887585       -5.5344619781
 H       -11.6302709510        4.9570521461       -6.5208618276
 H        -9.8445253880        4.7915013245       -6.2500071803
 H        -7.3938469743        0.8300296225       -8.1061532353
 H        -8.9931072890        0.6272737114       -7.3522659732
 H        -6.2635341920        1.4379427448       -6.1761697047
 H        -7.0382084591       -0.0882619497       -6.0745088157
 H        -9.3109560437       -0.5422456608       -2.6432710221
 H       -10.3408642569        0.8218474599       -3.0406373566
 H       -11.0309929333       -0.4630336025       -0.8554777741
 H       -10.8035159691        1.2706412427       -0.5670625914
 H        -6.9504659883        0.3752432170        2.2471069288
 H        -7.3631068558        1.5816476004        3.5562742072
 H        -7.6374750013        2.2967240300        0.5100848613
 H        -6.0385639878        2.1679986245        1.2068940556
 H        -8.8082191306        5.1602784937       -1.5390543666
 H        -8.5283946394        6.7501305413       -0.8286728145
 H       -11.2351799921        5.2627342504       -0.6394981429
 H       -10.9492208096        6.8843145916       -1.4225943362
 H       -11.9289894135        7.8648644861        4.4847799843
 H       -10.7144857076        8.3413529374        3.2661244493
 H        -9.4815588120        7.6441304097        5.1199941312
 H        -9.3936932492        6.1769519150        4.0372753723
 H       -14.6487686555        4.8744019773        5.7861876229
 H       -13.7251916121        4.3166096481        7.2726431830
 H       -12.9402662043        4.0695673846        5.7837286536
 H       -11.4282033308        4.4710593733        7.9661462051
 H       -12.3465548430        5.7183258434        8.8485304034
 H       -10.6196033976        5.8068092764        8.7534205096
 H       -11.8210872319        8.4771459385        6.3897190982
 H       -10.3205246481        8.1710583952        7.1943276568
 H       -11.9438007228        8.2553951451        8.0772067951
 H       -13.4990863675        8.2602728124        0.5552301053
 H       -12.0466629308        8.8849607861        1.5583818680
 H       -13.5487382068        8.3076239986        2.3262267181
 H       -14.1741262799        5.6557198396        1.4439591822
 H       -12.6763776276        4.6542627083        1.2433112018
 H       -13.3580969911        5.5647473910       -0.0407775956
 H        -7.0360637460        6.3078475092        2.8081540506
 H        -6.9785149495        7.0822846947        1.2871242149
 H        -5.5151535082        6.2321145159        1.7194644261
 H        -5.2938129832        4.4726789092        0.1203031644
 H        -6.2947621964        5.6566505685       -0.7765428570
 H        -6.5116778405        3.8862960513       -0.8442496959
 H       -11.2265026651       -1.7310882917        1.5957559271
 H       -11.7485540123       -0.0563069789        1.5618225016
 H       -11.0223326186       -0.8333856438        3.1188557543
 H        -8.5000096201       -1.4964069699        3.2447235517
 H        -7.5631463123       -1.3640244838        1.7218053587
 H        -8.8651057822       -2.4102853774        1.8932095045
 H        -6.1289314803       -0.1872544997       -4.0392470249
 H        -7.2853028062       -0.7726254303       -2.9420228004
 H        -5.9723394346        0.2076647004       -2.3315994990
 H        -7.0921956012        3.4582583681       -3.9107045205
 H        -5.7616268674        2.3381673089       -4.3718760195
 H        -5.9124807095        2.7518029769       -2.6673318039
 H        -9.4830240521        1.1721570985       -9.3399168236
 H        -8.3589586429        2.3206423400      -10.1364336461
 H       -10.0778731176        2.4255714986      -10.4146694576
 H        -9.5740024565        4.8941449184       -9.7296462300
 H        -7.9172976229        4.6023810069       -9.1141487656
 H        -9.1025546343        5.2555004095       -8.0613713838
 Na       -9.6461545079        3.8336350620        3.6823759001
