117

 C       -10.7156065816        3.8336592671       -6.3829140933
 C       -10.7076829997        3.1853699691       -7.6872529356
 O       -11.7450413209        2.7735377755       -8.2083039108
 C        -9.3708551695        3.0957476224       -8.5156090235
 C        -8.2770127948        2.7631578071       -7.5144633043
 O        -7.9118391873        3.5425558797       -6.6261802014
 C        -7.8739184069        1.3141912273       -7.4096099956
 C        -7.1122246840        0.8854710315       -6.0058413685
 C        -8.0277939000        1.1027535693       -4.7729466637
 O        -9.2199840197        1.0711520519       -4.9291134541
 C        -7.3958536009        1.2261643880       -3.2918604706
 C        -8.4574125406        1.5359314012       -2.2852446683
 O        -8.3703637360        2.5617288133       -1.6512989297
 C        -9.8104110772        0.7037979293       -2.2289168449
 C       -10.3838856487        0.5243120168       -0.8218824185
 C        -9.3722927132        0.0246175102        0.1777662461
 O        -8.1773500967       -0.0501435695       -0.0947371144
 C        -9.6088329353       -0.4215134619        1.7403976998
 C        -9.0851269861        0.9234106502        2.4866696927
 O        -9.8495416013        1.6012434746        3.1257273682
 C        -7.6181743662        1.1993862646        2.4215930066
 C        -7.1798852962        2.2582600480        1.3719082219
 C        -7.0809617705        3.7162051799        1.9684535974
 O        -6.9256488965        3.8206600046        3.1304572361
 C        -7.0763768552        4.9381065797        1.0275078795
 C        -8.6164366447        5.1223880182        0.7598198378
 O        -9.4339147641        4.8732667428        1.6142862234
 C        -9.0700018772        5.7356715201       -0.5020660780
 C       -10.5316877982        6.1208035413       -0.5574246541
 C       -10.8590780246        7.0039185747        0.7291020588
 O       -10.0942357594        7.9046229900        0.9960425668
 C       -12.1873438272        6.7409275551        1.5652352629
 C       -11.8744889706        6.3878435862        3.0356719820
 O       -12.0909069240        5.2515539794        3.4433101508
 C       -11.0903584824        7.4593654776        3.8094653650
 C        -9.9589407994        6.9369679739        4.7573522896
 C       -10.5788810853        5.9482822330        5.6905870709
 O       -10.2387288916        4.7444592188        5.7084542907
 C       -11.5649432582        6.4894454611        6.7891495869
 C       -13.0913023684        6.3108166148        6.2721301924
 O       -13.7610154793        7.2548018366        5.9075633958
 C       -13.5451042286        4.8155353007        6.2782992579
 C       -11.2981116604        5.7289352516        8.1166773924
 C       -11.3077696235        7.9886266701        7.1219074317
 C       -13.0171945807        8.1274250676        1.5012350023
 C       -13.1292251965        5.7649611984        0.8624566082
 C        -6.7480267612        6.2090037313        1.8705659717
 C        -6.2039883158        4.8146773755       -0.2906359437
 C       -11.1198665799       -0.6085552505        2.0132299708
 C        -8.8572068881       -1.7481572637        2.0448938820
 C        -6.5974787880       -0.0501135368       -2.9121749650
 C        -6.3715959856        2.4969414109       -3.2481315673
 C        -9.6441837174        2.1585476542       -9.7280843983
 C        -9.0116442590        4.5609460018       -9.1186461610
 H       -10.1374539627        3.2320115932       -5.6714785550
 H       -11.7093392685        3.9879341560       -6.0560431582
 H       -10.2371366661        4.7759683261       -6.3018454512
 H        -7.1575368157        1.0193535763       -8.1239443909
 H        -8.7211611076        0.6949752009       -7.5505710957
 H        -6.2799772767        1.5073391067       -5.9775060419
 H        -6.6290217704       -0.0836057468       -6.1603917623
 H        -9.7111571857       -0.2609323559       -2.6482294641
 H       -10.4969440648        1.0844811187       -2.9296224267
 H       -11.2636908500       -0.1015415684       -0.9680760844
 H       -10.6951769033        1.5354850768       -0.4959436343
 H        -7.0101443209        0.3286678621        2.2492240810
 H        -7.4788163264        1.4755527114        3.4171933185
 H        -7.7513778022        2.2443534236        0.4295354102
 H        -6.1560264113        2.0630073807        1.0457520332
 H        -8.9970662697        5.0360984078       -1.3807385076
 H        -8.4575669905        6.6542316883       -0.6742977937
 H       -11.1181223895        5.2424879872       -0.5306466308
 H       -10.6895630399        6.6779645822       -1.4431591545
 H       -11.8048156568        8.1144333456        4.2895974750
 H       -10.6239535018        8.0590694400        3.0510406087
 H        -9.5355517587        7.7492914128        5.3571619699
 H        -9.1720292097        6.4339136687        4.2494415235
 H       -14.0951447058        4.5532126260        5.4368574843
 H       -14.1099790282        4.6562656903        7.2351713035
 H       -12.7053185774        4.1743337023        6.4177867649
 H       -11.3585759684        4.6607662672        7.9836270866
 H       -12.0153090089        5.9967050292        8.9205238876
 H       -10.2608548326        6.0179817695        8.4216154721
 H       -11.4983026520        8.7157379114        6.2632039449
 H       -10.3024500106        8.0730157080        7.5216315133
 H       -11.9645271428        8.3045577337        7.9194877324
 H       -13.3139756526        8.2161572038        0.4616403828
 H       -12.4307596866        8.9511090220        1.8563205979
 H       -13.8989673676        8.0706480800        2.1562296575
 H       -14.1458231043        5.7516967370        1.3016076945
 H       -12.8032974050        4.7605964359        0.8968584984
 H       -13.3077716175        6.0588390474       -0.1675629754
 H        -7.5907851776        6.5734450284        2.4496050733
 H        -6.3760651178        7.0648728580        1.2985975886
 H        -5.9251680262        5.9411462492        2.5033096932
 H        -5.3069580800        4.2061460991       -0.1371167451
 H        -6.0180783854        5.7052232506       -0.7932530458
 H        -6.6952894365        4.1269496810       -1.0210819644
 H       -11.6640903620       -1.3336680252        1.4001107299
 H       -11.6712324408        0.3093656079        1.8346081056
 H       -11.1907090842       -0.8983220424        3.0595953976
 H        -8.7788585250       -2.0063263766        3.0844323482
 H        -7.8571722756       -1.8157236881        1.5921123865
 H        -9.4985662947       -2.6364376159        1.7173052416
 H        -5.9153958722       -0.3945836972       -3.7728308217
 H        -7.1965499863       -0.9189794964       -2.6842149934
 H        -6.0778956498        0.2655629124       -1.9679625398
 H        -6.8674787727        3.3929106344       -3.5387144580
 H        -5.5258128273        2.2920388860       -3.9388847895
 H        -5.9920730599        2.5697040879       -2.2639162834
 H       -10.3979764568        1.4513308405       -9.4095876611
 H        -8.7468907003        1.5938619325      -10.0282498121
 H        -9.9750409971        2.6264954015      -10.6212810546
 H        -9.8795254678        5.0021553910       -9.6521483221
 H        -8.2313384134        4.3401911871       -9.9062970792
 H        -8.6089764021        5.2692488513       -8.3789782757
 Na       -9.7154410566        3.8977598746        3.4876272978
