117

 C       -10.7419791181        3.6482085061       -6.2946288634
 C       -10.7097045502        3.2054682673       -7.7464087211
 O       -11.6818414252        2.7230579545       -8.2881671692
 C        -9.3291653137        3.0412719780       -8.5875845807
 C        -8.2439291453        2.6960822590       -7.4813842524
 O        -7.9729771149        3.5547850752       -6.6725085859
 C        -7.7555116485        1.2678785999       -7.4005677449
 C        -7.0353170045        0.9885112010       -6.0934581671
 C        -7.8990351529        1.1439734168       -4.7852195812
 O        -9.1372966787        1.0007905015       -4.8228116881
 C        -7.3405348738        1.2075928513       -3.3617576020
 C        -8.5817287185        1.6083880266       -2.3538391485
 O        -8.5178258776        2.5591037285       -1.6128598282
 C        -9.9095457233        0.7363542569       -2.1871106581
 C       -10.3785779012        0.6145723736       -0.6690008727
 C        -9.2728920576        0.0243003092        0.2295899547
 O        -8.1585870561       -0.0761156376       -0.1896382301
 C        -9.7058808577       -0.3585009342        1.7009873732
 C        -9.0424015375        0.8188456019        2.5693742688
 O        -9.8273760369        1.5739397593        3.0832630886
 C        -7.4883721699        1.1456401428        2.4200022346
 C        -7.2677948260        2.2754897671        1.3832329102
 C        -6.9796470220        3.6463136929        1.9933438195
 O        -6.9303734412        3.9325477540        3.1874008997
 C        -7.1336155975        4.8665673622        1.0668094395
 C        -8.6172562760        5.1288021399        0.7276879083
 O        -9.4043150164        4.8019080517        1.6157905304
 C        -9.0298846783        5.7271545741       -0.5966854966
 C       -10.5508017218        6.0871843150       -0.4790358734
 C       -10.8850947052        7.0751311089        0.6647433097
 O       -10.1455038876        7.9419601220        0.9426454146
 C       -12.2315291471        6.8306332038        1.4452341580
 C       -11.7359452683        6.3782770510        2.9311657891
 O       -12.0473968293        5.3453846664        3.4602943274
 C       -11.0557877512        7.5077266976        3.7241222642
 C        -9.9998075193        6.9555926696        4.6407982897
 C       -10.4911523314        6.0110875991        5.7279861281
 O       -10.2535167181        4.8251615884        5.6036774141
 C       -11.4823435155        6.4966864468        6.8692616430
 C       -12.9801523839        6.2934378343        6.3149517149
 O       -13.6412182761        7.2189394581        5.9154963908
 C       -13.5570546860        4.8508674761        6.2407592148
 C       -11.2578998046        5.7339466112        8.1739431404
 C       -11.3515609992        8.0178513020        7.1021924691
 C       -13.0481153355        8.1454874016        1.5895415918
 C       -13.1193619631        5.7484604889        0.8020463638
 C        -6.6753548857        6.1409899034        1.8716890162
 C        -6.2399469233        4.8552657559       -0.1900991264
 C       -11.3026095934       -0.4945377798        1.9924765770
 C        -9.1194895298       -1.6819210682        1.9858076869
 C        -6.6905136315       -0.0818164855       -2.8352692595
 C        -6.2564989790        2.3526382364       -3.2832458394
 C        -9.7145392635        2.0855275786       -9.7441356128
 C        -9.0662450206        4.5075550149       -9.1049696700
 H        -9.9260186413        3.2448052546       -5.7124381734
 H       -11.7313497806        3.5827506827       -5.8424669428
 H       -10.5387898488        4.7240166698       -6.1919953953
 H        -7.0016743542        1.0085941567       -8.2227375365
 H        -8.5559504937        0.4588878164       -7.4449080999
 H        -6.0395074456        1.5253179343       -6.1030822120
 H        -6.6904812645       -0.0564582239       -6.1844746797
 H        -9.8766630200       -0.1886645860       -2.6653536980
 H       -10.6760513202        1.1736831560       -2.8512535124
 H       -11.2974026346       -0.0086862911       -0.7108037591
 H       -10.6361056423        1.6070985491       -0.4065673591
 H        -6.8717658007        0.3276049865        2.1431356325
 H        -7.2096752387        1.4051937224        3.4714344123
 H        -8.0882322730        2.4764673107        0.6466161878
 H        -6.3991356266        2.0208389706        0.6783655302
 H        -8.8864359263        5.1756112576       -1.5556415011
 H        -8.4783569602        6.7155461311       -0.5989628327
 H       -11.1464352709        5.1591924239       -0.2675242205
 H       -10.9118376240        6.5573723931       -1.3969378625
 H       -11.9212974362        7.9631792166        4.2748534799
 H       -10.6386448414        8.3064449279        3.1227597528
 H        -9.5184908214        7.7862468441        5.1315334038
 H        -9.2369576464        6.4084289831        4.1052163859
 H       -14.0040846002        4.7468153630        5.2618975691
 H       -14.2833133794        4.7387657305        7.0280901633
 H       -12.8467330456        4.0371022062        6.3800034916
 H       -11.4902920037        4.6427612873        8.1828510946
 H       -11.9154334138        6.1556800744        8.9345330227
 H       -10.1989804364        5.9790765494        8.4587615913
 H       -11.4520548452        8.4920303565        6.1181662967
 H       -10.3551157665        8.1918536349        7.5395726885
 H       -12.0555712135        8.5241533345        7.7906335760
 H       -13.2116222124        8.5644218922        0.6268372937
 H       -12.5469136944        8.8362193098        2.2074760061
 H       -13.9753049968        7.9004292896        2.1368788916
 H       -14.0096412196        5.5099078403        1.4148407957
 H       -12.6328200755        4.7617700268        0.8340829669
 H       -13.5282843348        5.9947286982       -0.1857375406
 H        -7.4340067149        6.6482165723        2.4432162114
 H        -6.2128340798        6.8708719551        1.2683961086
 H        -5.8733398717        5.8340328938        2.5308873448
 H        -5.2799758366        4.5116382443        0.0645475627
 H        -6.2200162562        5.7888891081       -0.7525319943
 H        -6.4967314398        4.0867885726       -0.9120383009
 H       -11.7885092834       -1.1066626864        1.3011053190
 H       -11.8487573355        0.4243496344        1.9205538654
 H       -11.4146240808       -0.8938109422        2.9538062566
 H        -9.0962704205       -1.9012603447        3.1450285021
 H        -8.1102609849       -1.7841865499        1.6197388175
 H        -9.7269505534       -2.5063545739        1.6810923414
 H        -5.8613806267       -0.3077829980       -3.5024072891
 H        -7.3361412507       -0.9844589534       -2.9359932188
 H        -6.4046133145        0.0649338156       -1.7733832250
 H        -6.7613751177        3.2819787049       -3.5589563301
 H        -5.3618782058        2.2390806345       -3.8418039565
 H        -6.0896160374        2.4213180379       -2.1868300661
 H       -10.3114948806        1.3414235835       -9.2895988132
 H        -8.7974568003        1.5463321706       -9.9994587237
 H       -10.1487506742        2.4198198655      -10.6814136994
 H       -10.0393746130        4.9154896637       -9.4343662972
 H        -8.4523930364        4.4424161342      -10.0452832852
 H        -8.6342806474        5.1587597733       -8.3639967162
 Na       -9.7585744001        3.9095112104        3.6573161349
