117

 C       -10.8086607365        3.5348702114       -6.2628828746
 C       -10.7875365622        3.0419572558       -7.7564384972
 O       -11.8218522284        2.7605217926       -8.2687674748
 C        -9.4020772135        3.0009281538       -8.5576722129
 C        -8.3031892230        2.6578103186       -7.5227793689
 O        -7.8991447723        3.5213807409       -6.7590290344
 C        -7.6993069953        1.2005685111       -7.3671664263
 C        -6.9865561999        1.0274569183       -5.9711263612
 C        -7.9380724537        1.0002081951       -4.7803572087
 O        -9.1221181291        0.9731230337       -5.0012539978
 C        -7.4002676963        1.2712263386       -3.2370235852
 C        -8.6109873052        1.6076618259       -2.2811125219
 O        -8.5538833140        2.6611879299       -1.6011797932
 C        -9.8328653998        0.7516289066       -2.1812400598
 C       -10.3540606049        0.7396514553       -0.7381193207
 C        -9.3412574790        0.0160226148        0.1584219133
 O        -8.1813289003       -0.1779285189       -0.1380358882
 C        -9.7218781643       -0.2972804319        1.6519492516
 C        -9.0869553252        0.8533988150        2.4555497891
 O        -9.7657146764        1.6641846446        3.1411851759
 C        -7.5846632970        1.0925255567        2.4339097129
 C        -7.3581375695        2.2747511123        1.4529366958
 C        -7.0709937054        3.6531628442        2.0746261556
 O        -6.9799203608        3.7531031294        3.3116980321
 C        -7.0209314388        4.9341929243        1.0994415681
 C        -8.6170473088        5.1739554869        0.7355455245
 O        -9.5161512451        4.7851807375        1.4856889919
 C        -9.0065432781        5.7917139011       -0.5428909294
 C       -10.5819012860        6.0405194181       -0.5434363450
 C       -10.9416723407        7.0525411156        0.5649964722
 O       -10.2053536273        7.9931932248        0.8893884930
 C       -12.2814524806        6.8593039977        1.4619997117
 C       -11.7907805349        6.5010220855        2.8560933417
 O       -11.9151285331        5.3579454197        3.2855857698
 C       -11.0283990947        7.5920737777        3.6679195407
 C        -9.9862199638        7.0409913952        4.6054935943
 C       -10.5561456222        6.0264557072        5.7455992002
 O       -10.3091914965        4.8285846113        5.7199585359
 C       -11.3505613194        6.5641810344        6.8549960408
 C       -12.8849285902        6.2193666450        6.2920413893
 O       -13.4792436572        7.2046726564        5.9308967629
 C       -13.5378941730        4.8638626152        6.2153427508
 C       -11.2119082871        5.7294324422        8.1699658413
 C       -11.3259780867        8.0873782549        7.1149842315
 C       -13.0518720591        8.1493472420        1.5908784404
 C       -13.1401197237        5.7091006400        0.8837869851
 C        -6.5720323035        6.2171429692        1.8795068911
 C        -6.1957872912        4.7662415803       -0.2157560929
 C       -11.1918781421       -0.2290605624        1.8934989236
 C        -9.1922214405       -1.7396464063        2.0182270051
 C        -6.8210811989       -0.1228706535       -2.8340781559
 C        -6.2313139471        2.2792510778       -3.2555528596
 C        -9.4564146921        2.0263203086       -9.6647868038
 C        -9.1114089379        4.4624118377       -9.1295986228
 H       -10.0010436178        3.2266255892       -5.6140103248
 H       -11.8334720076        3.5206782509       -5.8290793233
 H       -10.6437875826        4.6548492003       -6.2672726024
 H        -6.9579360697        0.9917692066       -8.2352164567
 H        -8.4194478743        0.3064100528       -7.3076362308
 H        -6.1977247773        1.8635441290       -5.8069693004
 H        -6.3201018574        0.1400054077       -5.9823858985
 H        -9.6830109975       -0.2609310717       -2.6488202546
 H       -10.5391865078        1.1125856494       -2.9639184818
 H       -11.2932624591        0.1945102190       -0.7489231457
 H       -10.5234130890        1.7807874991       -0.5320845834
 H        -7.0295147350        0.2047416639        2.0450671061
 H        -7.2218840644        1.2408702277        3.5068410346
 H        -8.1847880979        2.4614783576        0.7349642152
 H        -6.5103592385        2.0500347324        0.7452976357
 H        -8.8546510349        5.0867879853       -1.3662718369
 H        -8.4545349459        6.7032690489       -0.7640504242
 H       -11.1683029980        5.0983145077       -0.3113578320
 H       -10.9081765664        6.4912567673       -1.5408193894
 H       -11.7999165205        8.1589455140        4.2339495098
 H       -10.5677360392        8.3740220977        2.9992625109
 H        -9.5396303423        7.8811385848        5.1377667731
 H        -9.1502141677        6.5068444985        4.0917596084
 H       -13.9324032438        4.7387590867        5.1513060765
 H       -14.2936890387        4.8200385063        6.9511224756
 H       -12.8247512373        4.0297569985        6.3705471697
 H       -11.5437053933        4.6709335093        8.0257032934
 H       -11.9396594823        6.0894795096        8.9099862480
 H       -10.2153534652        5.8131794366        8.5562634873
 H       -11.5436567612        8.6259628317        6.2403046945
 H       -10.3557266202        8.3528294245        7.6039127184
 H       -12.0600332504        8.4022629270        7.8847366307
 H       -13.2048085249        8.6381533403        0.6283967292
 H       -12.5030675936        8.8834164147        2.2153159653
 H       -13.9247388263        7.9287460978        2.1323804285
 H       -14.0199125523        5.4934824235        1.4814109775
 H       -12.6720664307        4.6835247135        0.9565713438
 H       -13.5326950952        5.9513868784       -0.1223876859
 H        -7.3532933938        6.4297953282        2.5989360031
 H        -6.3759970387        7.1181673452        1.3379193960
 H        -5.6745718728        6.0417293751        2.4671997250
 H        -5.1352314105        4.7343910677       -0.0434808257
 H        -6.4338808152        5.5238013093       -1.0017091965
 H        -6.3322663647        3.8392934148       -0.6895061894
 H       -11.6646136896       -0.8023579071        1.1452464038
 H       -11.6119735707        0.7327976167        1.7694949887
 H       -11.4720860291       -0.5859736952        2.8503581275
 H        -9.3269395320       -1.9913052051        3.0587837347
 H        -8.1093374046       -1.7921173892        1.8228479934
 H        -9.6990995427       -2.5340287663        1.5312042519
 H        -5.9635497328       -0.3235283278       -3.4110858940
 H        -7.5347320226       -0.8301222192       -3.2953835202
 H        -6.6832234788       -0.3342321251       -1.7984279594
 H        -6.5491153538        3.2531565326       -3.7018844484
 H        -5.4357302060        1.8899959699       -3.8717829914
 H        -5.8982358306        2.4469774803       -2.2067943037
 H        -9.7416030645        1.0111669258       -9.3342225014
 H        -8.4854597452        1.9308441052      -10.1255485695
 H       -10.1664456751        2.3424053540      -10.4688214418
 H        -9.9909762678        4.9624798410       -9.5046913606
 H        -8.4579097857        4.3597576478       -9.9541257290
 H        -8.6934835596        5.0674559036       -8.3020944634
 Na       -9.7433609250        3.8530972667        3.7983955919
