117

 C       -10.9106500507        3.3521180323       -6.3324726504
 C       -10.8411629002        2.8064901223       -7.7219984626
 O       -11.8085640470        2.6648038915       -8.4637504681
 C        -9.4246759371        2.8729451159       -8.3964572704
 C        -8.1683669819        2.6213564274       -7.4382240931
 O        -7.7196327276        3.5729298500       -6.8482356429
 C        -7.6528716893        1.2444536390       -7.2397526932
 C        -6.9624475507        1.1921043752       -5.8610281758
 C        -8.0044187025        1.0778558344       -4.7433195920
 O        -9.2179248247        0.9109709457       -4.9470830961
 C        -7.4303761311        1.2205914623       -3.3282838873
 C        -8.5127311606        1.6683071752       -2.3916109845
 O        -8.3553593514        2.6914070853       -1.8090382730
 C        -9.7866165568        0.8084011414       -2.2065677011
 C       -10.3430517532        0.7543406576       -0.7604988987
 C        -9.3441315766        0.0646383062        0.1646649674
 O        -8.2926321008       -0.4133030624       -0.1714444877
 C        -9.8466785502       -0.0832560781        1.5940838411
 C        -9.1839114357        1.0381500752        2.4507435296
 O        -9.8087422481        1.6828031636        3.2109390366
 C        -7.6696006237        1.1587443249        2.3578883305
 C        -7.2216914267        2.2493312705        1.4564362096
 C        -7.1947589754        3.6322928390        2.1327398738
 O        -7.3016389097        3.7479017382        3.3163531547
 C        -7.1616855524        4.8993268995        1.1993273876
 C        -8.6994856446        5.1367181861        0.8637682677
 O        -9.5949434946        4.7249259065        1.5821680929
 C        -9.0303398127        5.8370649665       -0.4362820551
 C       -10.5434988509        6.0695105977       -0.6211236612
 C       -11.0188554804        7.1492150991        0.4900816306
 O       -10.3578218538        8.1004579951        0.6868511918
 C       -12.3046371365        6.8695604089        1.3992606658
 C       -11.5666921007        6.4250956462        2.8083454036
 O       -11.4492293846        5.2539937519        3.0697664564
 C       -10.9843367790        7.5295440414        3.7199641428
 C        -9.9290043654        6.9826478630        4.6823227768
 C       -10.4918489305        6.0695518559        5.7640765093
 O       -10.2014786825        4.8743246599        5.7932524991
 C       -11.3930945860        6.6438131242        6.9383129079
 C       -12.9063039026        6.4410227955        6.3005998620
 O       -13.5386425042        7.2881838201        5.7200984607
 C       -13.2819343936        4.9348937236        6.2290946582
 C       -11.1282240835        5.7525145049        8.2378110370
 C       -11.1341909484        8.0827220510        7.3094275996
 C       -13.0372425685        8.1716007535        1.2885995374
 C       -13.2738214774        5.7381872126        1.0086520582
 C        -6.6246297191        6.1181371043        1.9676075794
 C        -6.2066602149        4.5651543669       -0.0451737107
 C       -11.3804866681       -0.0037275682        1.7989243563
 C        -9.3874737467       -1.4394955491        2.1207502084
 C        -7.0614170026       -0.1975351219       -3.0771300449
 C        -6.2219714945        2.1804767997       -3.1746272486
 C        -9.3027691151        1.7864831205       -9.5538114654
 C        -9.2955296550        4.2897179097       -8.9006163342
 H       -10.4385645057        2.6393198279       -5.6391223799
 H       -11.8986149470        3.6837538954       -6.0969170153
 H       -10.3106311282        4.2163921739       -6.1606517276
 H        -6.9895691954        1.0578413739       -7.9956297251
 H        -8.3822810854        0.5175179225       -7.1954368400
 H        -6.3946197147        2.0659135449       -5.8506607406
 H        -6.2129387690        0.3990268104       -5.7772737550
 H        -9.5912149674       -0.1872373937       -2.5170243628
 H       -10.4921776880        1.0283758657       -3.0007687944
 H       -11.2686291810        0.1498876153       -0.8569670054
 H       -10.6112598039        1.8037638638       -0.4817954496
 H        -7.2976811209        0.1807766541        2.0880278762
 H        -7.2011616732        1.3775412286        3.2979466284
 H        -7.7600326250        2.4428953252        0.5586121479
 H        -6.2359498408        2.1145190660        1.1134778880
 H        -8.6419999769        5.3868912928       -1.3439984754
 H        -8.6284657084        6.8541153755       -0.4051430612
 H       -11.1558163333        5.2072115792       -0.5376674735
 H       -10.7369721951        6.5304478843       -1.5440906195
 H       -11.8424948507        7.9836300239        4.2283554676
 H       -10.6129580127        8.3485007816        3.1399915053
 H        -9.5498497038        7.8131389035        5.3250183150
 H        -9.0511048199        6.5461142095        4.2095975388
 H       -13.7281227999        4.7110006061        5.2966929412
 H       -13.9746604817        4.6912108202        7.0963019196
 H       -12.4195901152        4.2627301846        6.2241803886
 H       -11.0852194733        4.7284675182        8.0163214523
 H       -11.9333568150        5.7817970067        8.9124615653
 H       -10.2091983826        6.0840455818        8.7256620997
 H       -11.6450187768        8.6276086599        6.4852345739
 H       -10.1569567517        8.3735461619        7.5365226330
 H       -11.6656120796        8.3819958851        8.1793428512
 H       -13.5831602206        8.1649035756        0.3381386346
 H       -12.3537216553        8.9815855176        1.1119832449
 H       -13.6904724754        8.3818602590        2.2067272682
 H       -14.2122880241        5.8260980290        1.5746194095
 H       -13.0060739973        4.7661856916        1.2688613570
 H       -13.5341666408        5.8308177953       -0.0215671529
 H        -6.8683630199        6.1191424090        3.0578972681
 H        -7.0734612568        7.0427815927        1.5472795785
 H        -5.5336719099        6.2875029165        1.9169182455
 H        -5.2403627151        4.1930499254        0.3253304144
 H        -5.9577322114        5.3849470002       -0.6973403419
 H        -6.5419929305        3.7612199638       -0.7755109335
 H       -12.0524572533       -0.7985621107        1.3633732943
 H       -11.7676426206        0.9881025314        1.3967815859
 H       -11.5795041512        0.1567714134        2.8898126429
 H        -9.8728255216       -1.6909852793        3.1353286735
 H        -8.3633246388       -1.5862959242        2.2313879715
 H        -9.7669883930       -2.1852946476        1.4430039931
 H        -6.2000561193       -0.3715761248       -3.7428346445
 H        -7.8440324515       -0.9152793866       -3.2430723304
 H        -6.6486870058       -0.2737036859       -2.0644134434
 H        -6.5060907141        3.1165786240       -3.6192565879
 H        -5.4635199589        1.7650561321       -3.8491503094
 H        -5.8812147398        2.3601231765       -2.1571975266
 H        -8.9117229113        0.8232449883       -9.2222173193
 H        -8.6300365859        2.0285821351      -10.4169731333
 H       -10.2902773215        1.5877932528       -9.9493341326
 H        -9.9419115497        4.4108960479       -9.7658289717
 H        -8.2719734728        4.4350152689       -9.3073962602
 H        -9.6236667147        4.9312728350       -8.1513773197
 Na       -9.5508268083        3.8625335104        3.7563307511
