117

 C       -11.0023262242        2.8674795910       -6.5101598053
 C       -10.7823933250        2.3350108456       -7.8950854146
 O       -11.6210921163        1.8206657170       -8.5738350931
 C        -9.3524017197        2.7078925601       -8.6833123362
 C        -8.1935963755        2.6545134950       -7.5754792457
 O        -7.9412656086        3.7063091963       -6.9658558581
 C        -7.6562496636        1.2352236126       -7.2788454513
 C        -6.8747477904        1.2798741271       -5.9065133346
 C        -7.8815096590        1.1392331110       -4.6740091799
 O        -9.0551706576        1.1124457714       -4.8499749776
 C        -7.2494055732        1.0599839567       -3.2137054795
 C        -8.2847903839        1.5170384424       -2.2102850272
 O        -8.1309004664        2.4065082256       -1.3538673228
 C        -9.7397630931        0.8730600822       -2.2257381220
 C       -10.3226964168        1.0358794673       -0.8177728615
 C        -9.7235711106        0.1519539132        0.2221877550
 O        -8.7459826107       -0.5856041055        0.0300592846
 C       -10.2306749855        0.1432359220        1.7364974509
 C        -9.3567486924        1.1825104364        2.4283258288
 O        -9.9568909282        2.1443572339        2.9673677282
 C        -7.9032478253        1.0944027900        2.4731517690
 C        -7.2783824261        2.1710948055        1.5516122003
 C        -7.2154540091        3.5715886140        2.1327953135
 O        -7.0869830629        3.7228961635        3.3522641587
 C        -7.1860068904        4.7036429010        1.1197158683
 C        -8.6771702472        4.7951196858        0.5777427179
 O        -9.5566941856        4.2648858790        1.2311483290
 C        -8.9649461139        5.6365408554       -0.5607140244
 C       -10.3950525096        6.1598924689       -0.6379002980
 C       -10.9838819754        7.1481621770        0.5329467568
 O       -10.4565832430        8.2706671253        0.6452862290
 C       -12.1943689448        6.8785467823        1.5417399568
 C       -11.5576216210        6.4834756121        2.9110957980
 O       -11.5754059032        5.3045888864        3.2549919522
 C       -10.8097218846        7.5470184854        3.6176890092
 C        -9.7025182230        7.1761920366        4.6646275926
 C       -10.2132971754        6.3157022242        5.8447151467
 O        -9.8715613271        5.1559972152        5.8519554084
 C       -11.3085702754        6.7510296025        6.9387879985
 C       -12.7953193557        6.5235681156        6.3540736993
 O       -13.3176557220        7.3811066470        5.6580798656
 C       -13.4665395513        5.2024029579        6.4453784441
 C       -11.0781610609        5.9565185721        8.2183298729
 C       -11.1839874955        8.3198002109        7.2726593454
 C       -12.9050750315        8.2380054820        1.5635560681
 C       -13.0764956496        5.7056859200        1.0076187311
 C        -7.0130210750        6.0679622442        1.8797391772
 C        -6.0982851263        4.4010985176        0.0235666425
 C       -11.6903631157        0.5260694433        1.8700134719
 C        -9.9969892302       -1.2970223244        2.3031084629
 C        -6.9530709913       -0.5625790070       -2.9794409490
 C        -5.8952023699        1.8346182032       -3.1436178931
 C        -9.2763621784        1.7566060568       -9.8362598916
 C        -9.6267028303        4.2750411124       -9.0648596551
 H       -11.6776346792        2.3454307461       -5.8540216668
 H       -11.3852496621        3.8829807778       -6.7660072670
 H       -10.0526301866        3.0524485224       -5.9686341604
 H        -7.0320705643        0.9187580499       -8.0429082391
 H        -8.3624780740        0.5011688380       -7.1695613881
 H        -6.4214334523        2.2901012261       -5.8367617042
 H        -6.0831814893        0.6036965152       -5.9280066766
 H        -9.7172261625       -0.1575566521       -2.4740299571
 H       -10.3855036673        1.3712576839       -2.9293792838
 H       -11.4639633484        0.7999331625       -0.9024848092
 H       -10.2952444279        2.0981977121       -0.5412855962
 H        -7.4250147739        0.2042464502        2.2506724641
 H        -7.6589168702        1.3284876180        3.5110403010
 H        -7.7302639290        2.1790338984        0.5849438253
 H        -6.2634630417        1.7745605753        1.4622008838
 H        -8.8831877513        5.1572802577       -1.5345166894
 H        -8.1804578039        6.4021136150       -0.6263624480
 H       -11.0478749969        5.3327862414       -0.6125612705
 H       -10.6490986843        6.6119102180       -1.5297492186
 H       -11.5726029428        8.2354679768        4.0139409982
 H       -10.3990724897        8.1964066273        2.8712436062
 H        -9.1934677854        8.0881999528        4.9906398782
 H        -8.8891377987        6.5381637477        4.2426781702
 H       -14.5457181677        5.2550247046        6.0960496464
 H       -13.5524273300        4.8513517018        7.4238090961
 H       -12.9898004413        4.5328709053        5.6935909722
 H       -11.2038667818        4.8769579395        8.2045389702
 H       -11.5776123555        6.4189804403        9.0383222383
 H       -10.0694252996        6.0800766315        8.4964511207
 H       -11.3139181840        8.9506465405        6.4562480178
 H       -10.1685803317        8.5649088263        7.6513010478
 H       -11.8881518559        8.5939477349        8.0633758283
 H       -13.4272009459        8.5489292112        0.6303612161
 H       -12.1967095723        9.0597473475        1.8901495272
 H       -13.7398126293        8.1657049278        2.2531495117
 H       -13.8753022784        5.6167013974        1.7064703735
 H       -12.4576849149        4.7769853413        1.0756794062
 H       -13.4937902900        5.7475960547        0.0144827636
 H        -7.9891744541        6.4199218147        2.2537087308
 H        -6.6223499804        6.8655724945        1.2532427208
 H        -6.4364672822        6.0078592322        2.8309461123
 H        -6.4665627830        3.7502635809       -0.7633705908
 H        -5.2377076326        3.7222792558        0.3588060758
 H        -5.7388587310        5.3124425944       -0.4100971004
 H       -12.3364192098       -0.2852029681        1.4870954291
 H       -11.8981510177        1.5531246056        1.4838859144
 H       -11.9938687338        0.4758799616        2.9414488084
 H        -9.8597735260       -1.3967280899        3.3337432727
 H        -9.0749148924       -1.7231476253        1.8073768786
 H       -10.7616746376       -1.9367709740        1.8847678089
 H        -5.9493234372       -0.7728091418       -3.1899560158
 H        -7.7164826980       -1.0571375011       -3.5837887594
 H        -7.0918436398       -0.8863860576       -1.9852852337
 H        -6.0479509465        2.8818333023       -3.4907915665
 H        -5.1235062700        1.4130699417       -3.7458713604
 H        -5.5214067330        1.8350206418       -2.0870065083
 H        -9.3248713322        0.7044234163       -9.5303230900
 H        -8.3419294439        1.8870129820      -10.3957136983
 H       -10.1530881202        1.8590622222      -10.5451135322
 H       -10.7047971394        4.3451506602       -9.1624200794
 H        -9.1261150780        4.6303156788       -9.9350424872
 H        -9.2261199795        4.9223486512       -8.2504253150
 Na       -9.5420822691        4.1708510647        3.6736229721
