117

 C       -11.0941740835        2.9376974857       -6.6594950574
 C       -10.7599495165        2.2953364792       -7.9441378400
 O       -11.5104052082        1.5790055180       -8.6041445774
 C        -9.4275542508        2.6700057890       -8.6096845217
 C        -8.2609892309        2.6286691911       -7.5707124787
 O        -7.8246585148        3.5869797486       -6.9011295932
 C        -7.6263665288        1.3098360421       -7.1600693417
 C        -6.9298027019        1.3410516921       -5.7361322075
 C        -7.9024198549        1.2074045552       -4.6666666305
 O        -9.1059814414        1.0291367341       -4.7639481091
 C        -7.2350273335        0.9989500968       -3.2987439617
 C        -8.2611508931        1.4472417571       -2.1653622169
 O        -7.9281129469        2.3673654229       -1.3835063511
 C        -9.7639670005        0.9505909260       -2.1284702518
 C       -10.4011889687        1.0289737222       -0.7585563459
 C        -9.7507992519        0.0881480127        0.2119871103
 O        -8.7380734934       -0.5298232871       -0.0727918735
 C       -10.3333751448        0.1165636271        1.6718261376
 C        -9.4089504399        1.2317288592        2.5058811856
 O       -10.0530308206        2.1121917471        2.9930118622
 C        -7.9021081051        1.0645647698        2.5250382902
 C        -7.2719212524        2.0884198429        1.5421706804
 C        -7.1699612607        3.5166120429        2.2208233600
 O        -7.1156363593        3.6981518654        3.4087629791
 C        -7.2381430516        4.6826286720        1.1712612773
 C        -8.6950077909        4.8346158480        0.5913917871
 O        -9.5887547795        4.2428028875        1.0996609850
 C        -8.9908534362        5.7529883933       -0.6249532394
 C       -10.4704746325        6.1432306722       -0.6019569974
 C       -10.8843726306        7.1168137986        0.6122984147
 O       -10.2845047204        8.1703847675        0.6970516877
 C       -12.1520407684        6.8568933527        1.5313330644
 C       -11.4900283173        6.5101231832        2.8499403120
 O       -11.5601802127        5.3774415018        3.3032947465
 C       -10.7683961701        7.6955772596        3.6140499554
 C        -9.7606034734        7.2505592405        4.6970755514
 C       -10.3078433831        6.2705857586        5.7524664420
 O        -9.8988227595        5.1305930148        5.7478297367
 C       -11.2343621882        6.8078783699        6.9243111558
 C       -12.6986405050        6.5596307051        6.2889064401
 O       -13.1654624821        7.4801546878        5.6676419009
 C       -13.4212877404        5.2163100180        6.5687727091
 C       -11.1518683236        6.0374875812        8.2721431059
 C       -11.1932938156        8.2940431919        7.1513956294
 C       -12.8970048185        8.1920895452        1.5173748229
 C       -13.0281914080        5.6646393932        1.0712777695
 C        -7.0001413743        6.1072548065        1.8206145186
 C        -6.2599183062        4.3876926743        0.0144255931
 C       -11.8055794576        0.5659598356        1.7589123218
 C       -10.1385150148       -1.2197774961        2.4271486006
 C        -6.8874821461       -0.4967381399       -3.1787689326
 C        -5.9031819425        1.7453834152       -3.1486690076
 C        -9.2136563996        1.8521403596       -9.8538023754
 C        -9.7428771812        4.1262672593       -9.1406515980
 H       -11.9339745407        2.3542631627       -6.2634088358
 H       -11.4037643774        3.9537645356       -6.7529323400
 H       -10.2728975338        2.8727292384       -5.9764829501
 H        -6.8856618654        0.9330006643       -7.8904768761
 H        -8.3237885395        0.4644498983       -7.0722612518
 H        -6.4540089076        2.3235793874       -5.5553001116
 H        -6.1615602890        0.5889134356       -5.6925552365
 H        -9.6739398594       -0.1284364340       -2.3872906340
 H       -10.3269857473        1.4654686479       -2.8488603242
 H       -11.4851990651        0.9251540891       -0.8067941824
 H       -10.2429438567        2.0626736479       -0.4009150752
 H        -7.5670264289        0.1057971497        2.1159705981
 H        -7.5315582737        1.1573658518        3.4932382017
 H        -8.0122212624        2.2385393004        0.7146588376
 H        -6.4012863992        1.5026459226        1.1467400186
 H        -8.9076218049        5.2992232382       -1.6454719045
 H        -8.3651728072        6.6595920001       -0.7836245208
 H       -11.1557712590        5.3425208703       -0.6745945144
 H       -10.7730389130        6.7532091876       -1.4680327994
 H       -11.5327064971        8.3754600020        3.9069946875
 H       -10.2103659951        8.3178100287        2.9072193357
 H        -9.2792065978        8.0822770540        5.1668620869
 H        -8.9542526567        6.6915125210        4.2172071555
 H       -14.4514703664        5.2217888718        6.3155911941
 H       -13.4653559533        5.0638637226        7.6536980412
 H       -12.9888184636        4.4148557460        6.0024934414
 H       -11.3005190415        5.0205046640        8.0114703573
 H       -11.8446607081        6.4172139331        9.0315179387
 H       -10.2416206571        6.0106517311        8.7992814171
 H       -11.4073189079        8.9200682386        6.2958094043
 H       -10.1895674474        8.6123636083        7.4165841607
 H       -11.8652312726        8.5117536162        7.9500198389
 H       -13.4364678285        8.4073890908        0.5739103979
 H       -12.1468918863        8.9909575803        1.7338669239
 H       -13.6946531842        8.2190451391        2.2241606796
 H       -13.8298855552        5.6922110860        1.7736232921
 H       -12.4986293905        4.7274753755        1.0654340194
 H       -13.4883603285        5.7814504918        0.1159708645
 H        -7.9896543579        6.5160745729        2.1296922418
 H        -6.5749268665        6.8785246578        1.1266457298
 H        -6.4543493669        6.0987109061        2.7707387035
 H        -6.6999670383        4.2004418666       -0.9893198258
 H        -5.7630926868        3.4426161247        0.1352839386
 H        -5.5504467040        5.2010454664       -0.0838357659
 H       -12.4804645058       -0.2841033882        1.4454975160
 H       -11.9752845810        1.5328513646        1.2535433978
 H       -12.1188146120        0.6473609526        2.8446580015
 H       -10.2728229051       -1.0622832831        3.4678008038
 H        -9.0920680560       -1.5930491179        2.3086933878
 H       -10.7794268751       -2.0842624371        2.0165657260
 H        -5.7738937142       -0.6716226273       -3.3698209663
 H        -7.5353153430       -0.9657612323       -3.8829872697
 H        -7.0761406897       -0.9587197711       -2.1856492539
 H        -6.0785628399        2.7749833026       -3.3806682321
 H        -5.1178808588        1.4034494827       -3.8549769398
 H        -5.4845375395        1.6495425785       -2.1802281027
 H        -8.9352164137        0.7720111440       -9.7824794417
 H        -8.5563601457        2.3812261802      -10.5390544068
 H       -10.1920338565        1.8111931832      -10.3457088662
 H       -10.8288941027        4.2028599781       -9.1008871744
 H        -9.3631311572        4.3799076246      -10.0979608990
 H        -9.2186554376        4.8380854910       -8.4441964940
 Na       -9.4208578490        4.2779456585        3.7221046899
