117

 C       -11.9422178272        2.2033427321       -7.7219115089
 C       -10.5507596886        1.6557112376       -8.1164915326
 O       -10.4060206101        0.4666959614       -8.0732017086
 C        -9.4319160660        2.5203729207       -8.7470708396
 C        -8.3583680944        2.6529939993       -7.5567444260
 O        -8.2144757557        3.5696362660       -6.7875701620
 C        -7.6705845796        1.2970029934       -7.3232509425
 C        -6.9086336207        1.3254638555       -6.0258902534
 C        -7.9744179591        1.2137612963       -4.9264951958
 O        -9.1750762608        1.2005280226       -5.0506999840
 C        -7.4565217726        0.7993965309       -3.4285044149
 C        -8.4161605279        1.2883028987       -2.2966233729
 O        -8.3299661801        2.3328525474       -1.6416532363
 C        -9.6772744422        0.5352604754       -2.1672432950
 C       -10.3880904666        0.8034655298       -0.8717134274
 C        -9.7903840061        0.1306061468        0.4104023426
 O        -8.7808819691       -0.5519667558        0.3261592374
 C       -10.5657110490        0.2586487779        1.7943877851
 C        -9.8016195572        1.2786149181        2.7281521917
 O       -10.4123151308        2.0566873571        3.4565453723
 C        -8.3359196169        1.1553710450        2.7393152427
 C        -7.4850319834        2.1148333000        1.7760152442
 C        -7.3160437263        3.5508672406        2.2383729126
 O        -7.3969833243        3.8002387435        3.4513649788
 C        -7.1542039603        4.7567920179        1.1807883719
 C        -8.6155443224        4.8895236729        0.7208278574
 O        -9.6084287878        4.6842245027        1.4618968523
 C        -8.9151859495        5.3252224829       -0.7827431757
 C       -10.3609407567        5.8819163247       -0.7623766857
 C       -10.4087982120        7.0072015396        0.3720795685
 O        -9.5327595563        7.7678054783        0.5523384537
 C       -11.7331524023        7.0359106262        1.3450212343
 C       -11.3388448075        6.7902959814        2.8049532734
 O       -11.5840030463        5.6825198735        3.3136428140
 C       -10.6956132569        7.9422423131        3.6181075661
 C        -9.7066323725        7.3720866172        4.7184350652
 C       -10.2504770221        6.5780593265        5.9345978060
 O        -9.8544169283        5.4101584845        6.0579089256
 C       -11.2024492589        7.1432534504        7.0003261275
 C       -12.6917281881        6.9254065221        6.4788649604
 O       -13.1081642956        7.6370715574        5.5931238432
 C       -13.3369326575        5.7129668006        7.0623724122
 C       -11.0318417349        6.4198576937        8.3564791672
 C       -11.0836499761        8.6844049387        7.1808295227
 C       -12.2972767941        8.4456777638        1.2160306572
 C       -12.8573952025        6.0914698192        0.9078731984
 C        -6.5798108279        6.1094436033        1.8014340153
 C        -6.2415957773        4.2395284692       -0.0266382054
 C       -12.0901084045        0.6654471098        1.7420305485
 C       -10.4337139564       -1.1461276069        2.4161692800
 C        -7.3073774573       -0.7182922874       -3.4322368748
 C        -5.9869043166        1.3995566960       -3.2099070254
 C        -8.8514348733        1.7472437007      -10.0369900838
 C        -9.8521759634        3.9482562420       -9.1478805159
 H       -12.2614398184        2.9609282520       -8.5084977333
 H       -12.0249273772        2.7513830937       -6.7849501294
 H       -12.5184687502        1.3007805300       -7.5415817874
 H        -7.0938639617        0.9410358548       -8.0913184020
 H        -8.4556178884        0.5870886054       -7.3079903932
 H        -6.3633867549        2.2571787379       -5.8655801350
 H        -6.2754863103        0.4487712210       -5.8645022434
 H        -9.4304476948       -0.5337327729       -2.1455992870
 H       -10.3387162492        0.8450100838       -2.9306751879
 H       -11.4824964873        0.7277718921       -0.8674334690
 H       -10.2400248602        1.9262069121       -0.7217558467
 H        -8.0145645521        0.1610706540        2.3274797948
 H        -7.9875543182        1.2780544712        3.7416907196
 H        -7.8602304374        2.0818234441        0.7762585535
 H        -6.5684570023        1.5499628264        1.7467489268
 H        -8.8831672963        4.5258340281       -1.5354883514
 H        -8.2401975638        6.0737404947       -1.1515784212
 H       -11.0447594434        5.1045668359       -0.5843494756
 H       -10.6532077330        6.4356692717       -1.6173735962
 H       -11.4496803181        8.5876967807        4.0788373420
 H       -10.0746512098        8.6194241298        2.9627173780
 H        -9.0440171933        8.1611058788        5.1511419659
 H        -9.0113129843        6.6306846131        4.2283836852
 H       -14.3470203752        5.6075859891        6.7048848852
 H       -13.1553996927        5.6008765804        8.1788513925
 H       -12.6675254520        4.9113393937        6.7445517982
 H       -11.1199660910        5.3401578685        8.3126213973
 H       -11.8561316814        6.7244082265        9.0327586459
 H       -10.0348048870        6.6809622769        8.7832444036
 H       -11.4235719658        9.3699050324        6.3484731514
 H       -10.0610485181        8.9159885445        7.4688442597
 H       -11.6178650197        9.0291653351        8.0643779537
 H       -12.7324748031        8.6257851038        0.2588989117
 H       -11.5433884877        9.1711270667        1.2423159732
 H       -12.9262022698        8.7328303035        2.0693055764
 H       -13.7438182161        6.3633053001        1.5342886012
 H       -12.6746753178        5.0778516495        1.2322387858
 H       -13.0389472520        6.2951810750       -0.1577822192
 H        -7.3298376254        6.6520574830        2.3542576641
 H        -6.3081276029        6.7147799555        0.9452731029
 H        -5.6883172537        5.9817181974        2.3605289722
 H        -5.8847092622        3.2856737831        0.3992044787
 H        -5.4598037123        4.8937826919       -0.2569454991
 H        -6.8485378643        4.1356780520       -0.9421261070
 H       -12.5969472189        0.1001002271        1.0216863542
 H       -12.1699855532        1.6618756686        1.4281298488
 H       -12.4585976848        0.6107493638        2.7220949247
 H       -10.8554862399       -1.1768224140        3.4663901178
 H        -9.4534208580       -1.4498725859        2.3715374750
 H       -11.0708716279       -1.7871003952        1.8766692124
 H        -6.4907824752       -1.0268564751       -4.0594200704
 H        -8.1412501745       -1.1621118761       -3.9318325000
 H        -7.3126925986       -1.1478389274       -2.4522811558
 H        -6.0257668361        2.4420379614       -2.9130414059
 H        -5.4465318815        1.4519250342       -4.1913982094
 H        -5.2933331955        0.9711285526       -2.5196814288
 H        -8.2449591239        0.8784387011       -9.7447779326
 H        -8.2427061970        2.3857560005      -10.6622544439
 H        -9.6935800560        1.3766948731      -10.5517096207
 H       -10.7901840304        3.8738293896       -9.7135500970
 H        -9.1835014903        4.3877225499       -9.8880672366
 H       -10.0578539640        4.4913840452       -8.2587885906
 Na       -9.5125085015        4.3737761673        4.0394944034
