117

 C       -12.0919026483        1.9204794526       -8.1050103264
 C       -10.6436355818        1.4459908473       -8.2863647285
 O       -10.4135167957        0.2461392292       -8.1272456150
 C        -9.5703462700        2.4320734704       -8.7822292818
 C        -8.4068043623        2.4634554348       -7.5831580339
 O        -8.2460401465        3.5062317831       -6.9788311461
 C        -7.3055879756        1.3457784227       -7.3788412773
 C        -6.7580311093        1.3590529273       -5.9594403026
 C        -7.9865084910        1.1949752142       -4.8729984270
 O        -9.1381255342        1.3099690155       -5.1839069053
 C        -7.5721504847        0.7703082967       -3.3936905647
 C        -8.5605991245        1.2605118572       -2.3565612126
 O        -8.3992458744        2.2976565222       -1.7103046511
 C        -9.7273410794        0.2823978382       -2.0758887346
 C       -10.6058283300        0.6888659781       -0.8526485473
 C        -9.8833652530        0.1457430403        0.4535092930
 O        -8.8065972826       -0.3557636818        0.3932215767
 C       -10.5432915742        0.3038821138        1.9396049030
 C        -9.7281447903        1.3484720407        2.7626181950
 O       -10.3520419890        2.3415008737        3.0686160441
 C        -8.1470852579        1.1625191099        2.9937345164
 C        -7.3598717374        1.9697517847        1.8944256519
 C        -7.1967126565        3.4468112816        2.2579200108
 O        -7.5041882489        3.7857502277        3.3686501059
 C        -6.9717683369        4.5303002274        1.1872467775
 C        -8.5691236677        4.8286540548        0.7456911125
 O        -9.3463583253        4.8651687316        1.6356475583
 C        -8.9449839996        5.3123439014       -0.6079700078
 C       -10.3854975321        5.8973476349       -0.6483285121
 C       -10.5369428376        6.9766157750        0.4722938743
 O        -9.5963304938        7.7544379728        0.6983462361
 C       -11.7803764301        7.2269682990        1.3264761410
 C       -11.2380463127        6.8651648223        2.7474689885
 O       -11.3975896688        5.7282334223        3.0646637728
 C       -10.5494391328        7.9369272054        3.6350255927
 C        -9.6138211658        7.4575691966        4.8081926194
 C       -10.2522253220        6.5545004464        5.8830636953
 O       -10.1570651187        5.3487626953        5.9263953526
 C       -11.1528109082        7.2777849506        6.9955803581
 C       -12.6644583615        6.9847305609        6.5487606055
 O       -13.1275662698        7.7122030908        5.6772796111
 C       -13.5444274675        5.7269271984        6.9530678890
 C       -10.7290352737        6.6813835401        8.3608620935
 C       -10.8854378433        8.7613203947        7.0348415005
 C       -12.1976478348        8.6676392454        1.1137916727
 C       -12.9845689747        6.2383013033        0.9724945032
 C        -6.6076320126        5.7611838794        2.0690422547
 C        -5.9923123262        4.2055455476        0.0924943996
 C       -11.9635323271        0.7274282345        1.6938156176
 C       -10.4821127514       -1.1436629724        2.5804616167
 C        -7.4233370061       -0.7959668111       -3.4691118454
 C        -6.2331514622        1.3837512379       -2.9059945328
 C        -8.9007345476        1.8076606653      -10.1047772433
 C        -9.9751467606        3.9407078240       -9.0108257730
 H       -12.3320777814        2.3277723385       -9.0543196567
 H       -12.1751346158        2.7610717223       -7.3944904533
 H       -12.7233574911        1.1104236353       -7.6983663810
 H        -6.4374229387        1.4724180441       -8.1238157715
 H        -7.7260786182        0.3538769534       -7.6840174522
 H        -6.2022036368        2.2706281737       -5.7126867418
 H        -6.1422384630        0.4886734485       -5.8677623563
 H        -9.3981544661       -0.7023869901       -1.8601231681
 H       -10.4208286837        0.4073806974       -2.9366528325
 H       -11.6087994721        0.2082622798       -0.8253081771
 H       -10.8322501160        1.7280450845       -0.7398160868
 H        -7.7370210143        0.1802519589        2.9810383788
 H        -7.9514193979        1.6432330898        3.9535835149
 H        -7.8969371292        1.7659751130        0.9300142480
 H        -6.4384022304        1.3662653170        1.7185527355
 H        -8.7291935985        4.5950212017       -1.4264965004
 H        -8.2258169096        6.1669241031       -0.7825010177
 H       -11.0848505303        5.0680939921       -0.3125495373
 H       -10.6394674945        6.3481171976       -1.6760059522
 H       -11.3239610692        8.6165253620        4.0253446142
 H        -9.8564309203        8.5341210731        3.0929943586
 H        -9.1736939289        8.3291034417        5.2844210342
 H        -8.8141704608        6.9023597234        4.3444424094
 H       -14.2965009220        5.7829232337        6.1715045782
 H       -13.8608859633        5.7656526380        7.9545138863
 H       -12.9760443042        4.7856599954        6.9755408924
 H       -10.9225345040        5.6114801824        8.3557688527
 H       -11.3240143308        7.0447494060        9.1779037339
 H        -9.7017365711        6.8572489342        8.5013901172
 H       -11.2609523564        9.2005034285        6.1739795147
 H        -9.8803362500        9.0788202594        7.2936153663
 H       -11.4420856211        9.2323236055        7.8369485488
 H       -12.5885423757        8.7858248994        0.0707536728
 H       -11.3396775701        9.4209433018        1.0103534859
 H       -12.9002166838        9.0748050284        1.8249589602
 H       -13.8527403333        6.4601860231        1.5197468567
 H       -12.7616820012        5.2141771412        1.2764943675
 H       -13.0868178257        6.4571645821       -0.0608554376
 H        -7.3448477615        5.7868536817        2.8645818509
 H        -6.4486142350        6.7085162269        1.5578400782
 H        -5.6630005177        5.4857215101        2.5644894084
 H        -5.2712321360        3.5053626132        0.4503157407
 H        -5.5564589220        5.1890844267       -0.2202527966
 H        -6.5914018699        3.9024814178       -0.7364165332
 H       -12.4509124233       -0.0899926340        1.0922438640
 H       -11.9928280979        1.6846466819        1.1294028157
 H       -12.4838196367        0.8245876901        2.6883080287
 H       -11.1629931220       -1.1844993940        3.3768828713
 H        -9.4339698834       -1.3124645696        2.9569063110
 H       -10.7637591764       -1.9497305071        1.8066621391
 H        -6.7046615351       -1.0664659648       -4.2778664862
 H        -8.3774310573       -1.2353280363       -3.7368707188
 H        -7.0647938859       -1.3312530794       -2.5865565533
 H        -6.2762746585        2.4808698418       -2.7765664305
 H        -5.3624983802        1.2357351678       -3.5175919600
 H        -5.9487403827        0.9777764807       -1.9000028588
 H        -8.3248357734        0.9138339629       -9.8951083692
 H        -8.1622470936        2.5457712260      -10.3923699491
 H        -9.6990746051        1.6941953466      -10.8819800631
 H       -10.9924854366        4.2149629307       -8.8174871431
 H        -9.7873542538        4.2182630476      -10.0011250851
 H        -9.4041897770        4.4495055124       -8.2078840943
 Na       -9.7659520418        4.3938336941        3.8890436097
