117

 C       -11.9691308134        1.2513402294       -8.5889799009
 C       -10.5061895267        1.1273070751       -8.4224771045
 O       -10.1045903520        0.0191612574       -8.1979102520
 C        -9.5559732567        2.3360774295       -8.7866201924
 C        -8.5119955338        2.5711785758       -7.5650202315
 O        -8.2983366188        3.6314850402       -7.0357226111
 C        -7.7228855719        1.2089118578       -7.2017568722
 C        -7.0870675453        1.3491686307       -5.8539525781
 C        -8.1449122745        1.0944823038       -4.7840555242
 O        -9.2964316579        1.4416760176       -4.9861741600
 C        -7.6533507702        0.6156873957       -3.3578927622
 C        -8.7530679817        1.0584150587       -2.3172733418
 O        -8.6180233944        2.1396318383       -1.7475632288
 C        -9.8801028760        0.0216825606       -2.1069436931
 C       -10.8059816902        0.2993717209       -0.9245918684
 C        -9.9399046077       -0.0214520069        0.3511246219
 O        -8.8266207332       -0.4204524862        0.2459540331
 C       -10.5947795323        0.1826917815        1.7734786652
 C        -9.6595084901        1.2625050649        2.4896337067
 O       -10.0611771772        2.4087206046        2.6111772844
 C        -8.2091306516        0.9948551169        2.9497875832
 C        -7.2331841867        1.8270841885        2.2327536338
 C        -7.2312552664        3.3369693030        2.5298851562
 O        -7.3087415804        3.8355920838        3.6309535795
 C        -7.0406392920        4.4409885837        1.4044105731
 C        -8.4116834315        5.0565264180        1.1212429225
 O        -9.2505176145        5.1563779661        2.0242852350
 C        -8.7378735136        5.3284680719       -0.2996604038
 C       -10.1391200992        6.0362820424       -0.4725428752
 C       -10.3697759605        7.2466630419        0.4855443068
 O        -9.4566625737        8.0190785748        0.6268145257
 C       -11.7579429736        7.4195869207        1.2734740337
 C       -11.3960647469        6.9236885075        2.6571139696
 O       -11.8499689262        5.9244898141        3.2061958445
 C       -10.5601177368        7.9284804779        3.5426245330
 C        -9.5608773911        7.3637356793        4.6480033737
 C       -10.3300802999        6.6560364001        5.7716258915
 O       -10.4560793404        5.4345661445        5.7352749862
 C       -11.0609482028        7.4416792279        6.8384075384
 C       -12.6747818410        7.3106599176        6.4713962175
 O       -13.2455030282        8.0941983513        5.7482292999
 C       -13.4048057069        6.0557881726        7.0294592653
 C       -10.7159255756        6.8761552731        8.2980688123
 C       -10.6487798505        8.9045564262        6.7954362504
 C       -11.9801366718        8.9495809117        1.2055529289
 C       -12.8437653216        6.6092346708        0.6133685493
 C        -6.2301807720        5.6271890916        1.9777671140
 C        -6.2548677561        3.8943763107        0.1705089125
 C       -12.0768133016        0.6540591771        1.6915132582
 C       -10.4335747388       -1.1092880786        2.6589468136
 C        -7.4747834630       -0.9036342459       -3.4509785331
 C        -6.3596205723        1.3646009397       -2.9125304851
 C        -8.6345317610        1.9003124661      -10.0287085861
 C       -10.2290207095        3.7289910483       -9.0099865522
 H       -12.2775556064        1.6470328297       -9.5780099264
 H       -12.4166299733        1.8025154904       -7.7229091590
 H       -12.2909723368        0.1804708453       -8.6177501369
 H        -6.9977408188        0.9033709532       -7.9290531570
 H        -8.4814068627        0.4589402208       -7.1895930571
 H        -6.6707362750        2.3183107118       -5.6610018507
 H        -6.3630473460        0.6229469755       -5.6781737669
 H        -9.4622972125       -0.9601299321       -2.0301907937
 H       -10.4688613705        0.1123080581       -3.0291865764
 H       -11.8258324945       -0.2203326424       -0.8887008280
 H       -10.9924219602        1.3631923562       -0.8154296919
 H        -8.0328996763       -0.0630139802        2.8199285266
 H        -8.0267415163        1.2437841391        3.9459510262
 H        -7.3878144205        1.6825977265        1.1525243500
 H        -6.2295771809        1.4039025943        2.4067661535
 H        -8.6647418794        4.3659583444       -0.8378165131
 H        -7.8843834630        5.9453895853       -0.6623013225
 H       -10.8649157729        5.2523353628       -0.3248274238
 H       -10.1685884973        6.4011916881       -1.5323315574
 H       -11.3044804331        8.5528300484        4.0734786379
 H        -9.9228973933        8.5523566754        2.9529251166
 H        -8.8582891321        8.1405841783        5.0433934643
 H        -8.9498279998        6.5996634230        4.1185037844
 H       -14.3267762594        5.8893655197        6.4765987071
 H       -13.5307856809        6.1652949001        8.1501894790
 H       -12.7547904287        5.1394002999        6.8852895405
 H       -10.4536378762        5.8031881963        8.2199301624
 H       -11.5187442235        7.0558039391        9.0730608376
 H        -9.8361189163        7.4046417314        8.6501859684
 H       -10.9867400321        9.4813588882        5.9407039339
 H        -9.5209493470        8.9252792662        6.7845344017
 H       -10.9237237599        9.4198055396        7.7330906049
 H       -12.5029293758        9.2958150643        0.3069691576
 H       -10.9856620437        9.4471075828        1.2995983190
 H       -12.6733190435        9.3232230787        1.9046884093
 H       -13.7564053954        6.9236425741        1.1089466458
 H       -12.5636458506        5.5496215214        0.8362347021
 H       -12.8857002622        6.8613073072       -0.4634036642
 H        -6.8151632968        6.0368112106        2.7694632166
 H        -6.1086369668        6.3741085065        1.2078383861
 H        -5.2998982972        5.3129249513        2.3939329344
 H        -5.2085510678        3.6617856801        0.4441894686
 H        -6.2022727345        4.8007770940       -0.4459986061
 H        -6.7858341860        3.0689105826       -0.2963492688
 H       -12.6152933313       -0.1163065328        1.1946398215
 H       -12.1697139550        1.5937647472        1.2702178266
 H       -12.5466976697        0.6221373503        2.6474244806
 H       -10.0759374519       -0.8525076549        3.6460863224
 H        -9.7135757245       -1.7171303803        2.1896659054
 H       -11.3552867223       -1.7196885720        2.6157495328
 H        -6.4977603988       -1.0173995306       -3.9207702163
 H        -8.1840735142       -1.4352048539       -3.9496090657
 H        -7.3050952662       -1.3675655465       -2.5209242693
 H        -6.4863968303        2.4448708200       -2.9220106660
 H        -5.4578491157        1.2291054962       -3.5184069777
 H        -6.0512023523        1.0490987210       -1.9016229524
 H        -8.0924934445        0.9847591892       -9.8297933555
 H        -7.9741249138        2.6883390841      -10.2956848818
 H        -9.3779253682        1.7106026443      -10.8118959457
 H        -9.9543135926        4.2548117517       -8.0936180672
 H       -11.2757388367        3.6865597293       -9.0458495548
 H        -9.8779889543        4.3417245757       -9.8883637650
 Na       -9.5968207624        4.3517772342        4.0334826026
