117

 C       -11.9629523011        1.0661353220       -8.8379822847
 C       -10.4044955639        0.9137085080       -8.7384014452
 O        -9.8881064481       -0.1390950898       -8.4460142557
 C        -9.5413310393        2.2393593259       -8.9315125672
 C        -8.6009076591        2.4056939459       -7.6255273529
 O        -8.6531228424        3.4518855532       -7.0210643096
 C        -7.6216902368        1.2334049118       -7.2336006481
 C        -7.2340644429        1.5109162795       -5.7708223689
 C        -8.1970221478        1.1102517241       -4.6059469604
 O        -9.3945527679        1.2175152541       -4.7908745245
 C        -7.7345315944        0.6476271101       -3.1853028609
 C        -8.7848107014        0.9551660328       -2.1850041796
 O        -8.6782262322        1.7774638382       -1.2973318489
 C       -10.0842300515        0.1084138809       -2.1637039613
 C       -10.8961247514        0.1620280437       -0.8856523136
 C        -9.9191776620       -0.1962857547        0.3025857386
 O        -8.8521769496       -0.6968986899        0.1738652750
 C       -10.4894891408        0.1759813364        1.7263462459
 C        -9.6977536488        1.2876168360        2.4766862287
 O       -10.3210048270        2.3092467542        2.7104828596
 C        -8.2750482688        1.1120457432        3.0448696410
 C        -7.2139997041        1.8329759270        2.2327030926
 C        -7.2786734420        3.2539433250        2.5364925779
 O        -7.4000388585        3.6439581733        3.6923899111
 C        -7.0231286565        4.3330798467        1.4016557733
 C        -8.2802338746        5.1619081290        1.1021450190
 O        -8.9954400934        5.5585926124        2.0193279484
 C        -8.5966727494        5.5064590744       -0.4022153211
 C       -10.0347286919        6.0631522608       -0.5360655280
 C       -10.2830509905        7.3529680549        0.3424118895
 O        -9.3548693669        8.1221654674        0.5901406543
 C       -11.6656272660        7.6533486280        1.0792014024
 C       -11.3294054675        7.1255551509        2.6244819689
 O       -11.6306102195        6.0270828192        3.0355675496
 C       -10.4941751595        8.0857225161        3.5497878273
 C        -9.5700683502        7.3381299684        4.6320214645
 C       -10.3256162988        6.6892590767        5.8163556874
 O       -10.2950818197        5.4678775923        5.9966804854
 C       -11.1011483070        7.5625795756        6.8743478570
 C       -12.6422445990        7.6122769665        6.4928083189
 O       -13.1526215234        8.5137546571        5.8182556431
 C       -13.4600460953        6.3722845142        6.9439577520
 C       -10.7691513101        6.9278283263        8.3361619277
 C       -10.6537153881        9.0807331476        6.8252557465
 C       -12.0997868758        9.1056589795        1.1200159985
 C       -12.7697372420        6.7322040371        0.6004465646
 C        -5.9904809488        5.4041628830        2.0359047173
 C        -6.3405765721        3.6479703081        0.2656194217
 C       -12.0349958504        0.5538754780        1.7348698859
 C       -10.3827346274       -1.1674302437        2.4764905009
 C        -7.3759547123       -0.8583724468       -3.3414942924
 C        -6.4348757735        1.3910230208       -2.7275909241
 C        -8.6218429459        1.9330117818      -10.1976293426
 C       -10.4429375518        3.5401650735       -9.0083268634
 H       -12.1206875370        1.2839494005       -9.8348539602
 H       -12.3238135728        1.8181310055       -8.1564283457
 H       -12.4715957863        0.1279141113       -8.8443540852
 H        -6.7257004198        1.3609483817       -7.8594787837
 H        -8.0527712983        0.2586554478       -7.4016067485
 H        -6.9514905220        2.5618936603       -5.5507516786
 H        -6.3581899724        0.8117634730       -5.4891559705
 H        -9.9205185655       -0.9277492985       -2.4615369849
 H       -10.8069527253        0.4927375336       -2.9273417354
 H       -11.6823017470       -0.5707549361       -0.8404929287
 H       -11.3278055034        1.1741237146       -0.6949582022
 H        -8.0086072076        0.0547277802        3.0209151053
 H        -8.3419937555        1.4594607236        4.1315653552
 H        -7.3519456818        1.4988276592        1.2121951589
 H        -6.2838295311        1.4071136775        2.5695582106
 H        -8.4462365083        4.5683550895       -0.9434659003
 H        -7.8586973956        6.2551132385       -0.6890535977
 H       -10.6919485003        5.2746425215       -0.2361507472
 H       -10.2202083769        6.2751757127       -1.5508007249
 H       -11.1801017641        8.7354624996        4.1250575147
 H        -9.7941407556        8.6990478168        2.9606898702
 H        -8.7688191247        7.9780092139        5.0390739476
 H        -9.0638910022        6.5737030148        4.0759677793
 H       -14.4559949072        6.7415266748        7.1188305630
 H       -13.1825911194        5.8414485714        7.8295524351
 H       -13.6068760969        5.7666665917        6.0380193540
 H       -11.1743032391        5.9260636175        8.4562499539
 H       -11.0849139382        7.6623144812        9.0401547734
 H        -9.7125035494        6.8707413463        8.4932574112
 H       -10.7206905361        9.4924951881        5.8680126404
 H        -9.6245481330        9.2728889629        7.1315763426
 H       -11.3887132648        9.5806297695        7.4568963273
 H       -12.3989740209        9.4565212868        0.1509557324
 H       -11.2931860553        9.7312850103        1.5434223994
 H       -12.9916418306        9.2686509999        1.6495785531
 H       -13.6620607158        7.1122169697        1.0049686940
 H       -12.4242520571        5.7565266680        0.9209470673
 H       -12.8124579580        6.7014542895       -0.4674675721
 H        -6.2930988442        5.7163000544        3.0491469371
 H        -6.0148224768        6.2986665111        1.4058376368
 H        -4.9837305440        4.9218661267        2.0770443366
 H        -5.5687629291        3.1742800167        0.8251467316
 H        -5.8582857002        4.3213232156       -0.5002226108
 H        -6.9029919743        2.8235669508       -0.0994839932
 H       -12.7083195616       -0.2890973065        1.4404793709
 H       -12.2063441445        1.5128021800        1.2233449004
 H       -12.3556277242        0.7451904027        2.7937349241
 H       -10.9453449284       -1.1362793074        3.3513251054
 H        -9.3306762364       -1.2843425457        2.7829436068
 H       -10.5766994577       -2.0323162115        1.7962993478
 H        -6.5549247129       -0.9314506941       -4.1369433036
 H        -8.2417688816       -1.3755977473       -3.7802039488
 H        -7.0659186757       -1.4373617380       -2.4189808152
 H        -6.6534318929        2.3776269128       -2.3198933721
 H        -5.7461668828        1.5925467186       -3.4967244978
 H        -5.8584295537        0.8745830611       -1.9487725748
 H        -8.1294504223        1.0154318136       -9.9219677951
 H        -7.9530600806        2.7940974566      -10.3104605365
 H        -9.1474804794        1.7727366073      -11.1810113339
 H       -10.0197804526        4.3381353184       -9.6375119427
 H       -10.6958860573        4.0551932183       -8.0968445020
 H       -11.4421534532        3.1956985197       -9.3341442607
 Na       -9.7128238397        4.2286745566        3.9855792184
