117

 C       -11.9527253566        0.8852979655       -8.9191044751
 C       -10.4198211711        0.8641648259       -8.7851832244
 O        -9.8285249399       -0.1635453018       -8.5950152054
 C        -9.5749000091        2.1623542108       -8.9296074978
 C        -8.6801664039        2.4379514447       -7.6390650090
 O        -8.7684374492        3.4244809202       -6.9411463313
 C        -7.7491541870        1.3040431205       -7.1397660108
 C        -7.1108093483        1.6081871714       -5.7509945581
 C        -8.2186192439        1.1644808559       -4.6582016350
 O        -9.3714794946        1.1773801083       -4.9444505424
 C        -7.7419851802        0.6237556808       -3.2379926409
 C        -8.7811650503        0.8474157637       -2.0758785181
 O        -8.5341306479        1.7043190793       -1.2024631693
 C       -10.1428624290        0.1362062737       -2.1924897771
 C       -10.9143486981        0.1180214021       -0.8887978020
 C        -9.9846705433       -0.1328860009        0.3327178637
 O        -8.9016644478       -0.6515174165        0.1701857086
 C       -10.5531918778        0.0939560214        1.8317369696
 C        -9.7536654306        1.1776858633        2.5567053281
 O       -10.2832816145        2.2963134185        2.7557400106
 C        -8.3426580270        0.9487341836        3.0830914102
 C        -7.3750374277        1.7638563292        2.1927414171
 C        -7.3283161813        3.2830857299        2.5216024977
 O        -7.5467384103        3.7171741116        3.6447574387
 C        -6.8590994648        4.2722347310        1.4030075032
 C        -8.2375160626        5.1597022634        1.0834424461
 O        -8.9396309008        5.5124024234        2.0497302989
 C        -8.5731177700        5.5897071543       -0.3089046748
 C       -10.0113014349        6.1372089369       -0.4738142273
 C       -10.2587313535        7.3934709614        0.4126292921
 O        -9.3559108549        8.1475922144        0.5198153969
 C       -11.5933848863        7.5659817393        1.2032015463
 C       -11.2057033522        7.1255429614        2.6166737081
 O       -11.4417729862        5.9787409865        2.9564726302
 C       -10.5201437199        8.1106201565        3.5739445367
 C        -9.6399515405        7.4620300467        4.6608305868
 C       -10.3321425779        6.7643021818        5.7764344900
 O       -10.2782055842        5.5395582713        5.8790933400
 C       -11.0595466296        7.6458240119        6.8433848659
 C       -12.6691975352        7.5819849027        6.4749022612
 O       -13.0730094316        8.5446738152        5.8897268601
 C       -13.6248978464        6.4634052076        6.8337437344
 C       -10.7834599542        7.0647078735        8.2503636827
 C       -10.4845180319        9.0798532251        6.9234752223
 C       -11.9840590831        9.1089874530        1.0911734679
 C       -12.8398423060        6.6959825669        0.6453409176
 C        -5.9165975154        5.3868062639        2.0535458220
 C        -6.2308730595        3.6140168623        0.1636980620
 C       -12.0020265711        0.4582658456        1.7148473962
 C       -10.4195578361       -1.2231573791        2.6686125163
 C        -7.3633692387       -0.8708539883       -3.2411927848
 C        -6.4697995008        1.4413907739       -2.7018256487
 C        -8.6953492407        1.9210627822      -10.1761531348
 C       -10.3289130114        3.5043615735       -9.1217427663
 H       -12.3507836588        0.8588538502       -9.9545822536
 H       -12.3301903683        1.6660720732       -8.2772061817
 H       -12.2624496118       -0.0998169549       -8.6387360101
 H        -7.0346475264        1.1506618844       -7.8685982663
 H        -8.3214038003        0.4348451109       -7.0166743628
 H        -6.8429047856        2.6381578930       -5.4767481894
 H        -6.3033509366        0.9707112799       -5.5566642171
 H        -9.9467590099       -0.8613934423       -2.5454261574
 H       -10.7454402862        0.5483164546       -3.0021645194
 H       -11.6942815938       -0.7319324624       -0.7515816793
 H       -11.3861590295        1.0714995782       -0.6936584391
 H        -8.0215401950       -0.1075382052        3.1412798839
 H        -8.4065893280        1.3242574821        4.0542004142
 H        -7.6635194738        1.4901121328        1.1771231539
 H        -6.4031100235        1.3320517924        2.3792920507
 H        -8.2885703252        4.7968172572       -0.9819155739
 H        -7.9033847802        6.4550722438       -0.3671759160
 H       -10.6926051969        5.3791502319       -0.2714630915
 H       -10.1550685710        6.3736962693       -1.5308103733
 H       -11.2398171561        8.7682368057        4.1163520977
 H        -9.8083503912        8.7253068458        3.0356817825
 H        -9.0108818721        8.2607105132        5.1317678045
 H        -8.9033734850        6.7975960702        4.1324372871
 H       -14.5862580803        6.8619367301        7.1134109546
 H       -13.2943413015        5.8579432060        7.7648871321
 H       -13.7939219041        5.8881061375        5.9219423535
 H       -11.1988131561        6.0659680920        8.2133407808
 H       -11.2647754069        7.7693209196        8.9922304709
 H        -9.7445838315        7.0015410231        8.5251495037
 H       -10.4862071973        9.6623995265        5.9959466797
 H        -9.4229513859        9.0313608401        7.2088915330
 H       -11.0951140982        9.5780696065        7.6570377213
 H       -12.0177559099        9.3898880456        0.0344531037
 H       -11.2862640505        9.7256966518        1.6178203373
 H       -12.9450456070        9.3439301620        1.4759780153
 H       -13.6698538114        7.1280253586        1.1847731935
 H       -12.6850621058        5.6169909428        0.6499788414
 H       -12.9488451761        7.0077898863       -0.3966590289
 H        -6.2804336522        5.6934966528        3.0352283744
 H        -5.8691686261        6.2953244141        1.4217514154
 H        -4.9491665501        4.9182674491        2.1641704907
 H        -5.1696223509        3.3196427498        0.3520888458
 H        -6.2321016695        4.3502871982       -0.6076852705
 H        -6.7409208295        2.6746093023       -0.1060551378
 H       -12.6527654913       -0.3667161650        1.4274194641
 H       -12.1073646085        1.3131540371        1.1106125147
 H       -12.3638230295        0.7930351529        2.6854509650
 H       -11.0767407739       -1.1963812390        3.5749915265
 H        -9.4661510277       -1.2636713783        3.0098414229
 H       -10.5531346735       -2.1154227198        2.0722413069
 H        -6.3917100320       -1.0863809270       -3.7855126265
 H        -8.0994797535       -1.4999751430       -3.6933145839
 H        -7.2552755174       -1.1900113064       -2.1960063372
 H        -6.8092401679        2.4464597274       -2.6272420126
 H        -5.5223303826        1.4937256301       -3.2707714713
 H        -6.1963333514        1.2118548615       -1.6915627712
 H        -8.4351471823        0.8606660108      -10.3051907904
 H        -7.9182570800        2.6389300680      -10.1990436828
 H        -9.3416429474        2.1955793338      -11.0055958513
 H        -9.9111253749        4.1498700852       -9.9040142532
 H       -10.3112010582        4.1442005278       -8.2696265675
 H       -11.4179969276        3.3325295278       -9.2058934535
 Na       -9.8512889207        4.3263381739        3.9140744269
