117

 C       -11.8224122281        0.7227569065       -8.8352324189
 C       -10.2841809691        0.6598590368       -8.9056730508
 O        -9.6909876952       -0.4136217570       -8.8058854830
 C        -9.4810364323        2.0971438854       -8.9703139893
 C        -8.9269089266        2.3487128822       -7.5944937797
 O        -9.3672814068        3.2351103269       -6.8894624753
 C        -7.8897502629        1.3880450106       -7.0172968372
 C        -7.3785599151        1.4221432561       -5.5878219751
 C        -8.4302739467        0.9068434559       -4.5985223695
 O        -9.6063268166        0.7458647060       -4.7895194401
 C        -7.6619983415        0.6732351507       -3.1511953815
 C        -8.5870648714        1.0235836807       -1.9711201251
 O        -8.3334360624        2.0456731520       -1.2733941253
 C        -9.7871071427        0.1484949636       -1.8240127660
 C       -10.6943230819        0.4035253480       -0.6671445367
 C       -10.1398520145       -0.2107406163        0.6397193312
 O        -9.0795019007       -0.8296813170        0.5612803312
 C       -10.8249296834       -0.0526742158        2.0704599900
 C       -10.0127055939        1.1254169482        2.7271151273
 O       -10.6003789685        2.1663029989        3.0148528868
 C        -8.4809580720        0.8785809552        2.7840584253
 C        -7.6494166083        1.7436143205        1.7768615473
 C        -7.4459689795        3.2099866504        2.2939363470
 O        -7.7473594926        3.4700592185        3.4412123794
 C        -6.8034613945        4.2493188254        1.3863833638
 C        -8.0915624301        5.2361611645        1.0170274521
 O        -8.6290326341        5.6635226652        2.0328376723
 C        -8.4311879052        5.7278897064       -0.3918773303
 C        -9.8787340296        6.2033430972       -0.5601702597
 C       -10.1042504892        7.4928089857        0.3244737270
 O        -9.2070632529        8.2787746169        0.4039526577
 C       -11.4781050091        7.6591154306        1.1216361165
 C       -11.2219821072        7.1999049365        2.6329466532
 O       -11.5142485449        6.0907857305        3.0676516670
 C       -10.4572726980        8.2528161346        3.4783175781
 C        -9.5998093177        7.6037383079        4.5901722104
 C       -10.4018300969        6.9633497249        5.7406615424
 O       -10.5548108657        5.7421564267        5.6589250523
 C       -10.9271319604        7.6905374717        6.9989672599
 C       -12.5682022992        7.9112228470        6.3629747369
 O       -12.7518885369        8.9080234829        5.7394952325
 C       -13.5293850786        6.8222167402        6.4564874381
 C       -10.8599675185        6.9266470158        8.3273857961
 C       -10.3498288334        9.0713770944        7.2692424167
 C       -12.0048850469        9.1440597872        1.0895361068
 C       -12.5254047582        6.7847767833        0.5068847829
 C        -5.7507866372        4.9835635601        2.2462271133
 C        -6.0631775683        3.6648489136        0.1474853595
 C       -12.2960978189        0.3066117367        1.8747446072
 C       -10.5833568016       -1.4105723349        2.9056016103
 C        -7.2211110716       -0.7806752880       -3.2495551864
 C        -6.4467976644        1.6266461103       -2.9573881046
 C        -8.4243355447        2.0367088464      -10.0779131023
 C       -10.4334276790        3.2159801004       -9.3877102151
 H       -12.2454116241        1.1332414870       -9.7737270128
 H       -12.0264342061        1.2942296542       -7.9748021792
 H       -12.2592387652       -0.2325213467       -8.7076718091
 H        -6.9669572648        1.5818090052       -7.5250605297
 H        -8.2516859541        0.4057473893       -7.3275787786
 H        -7.0835362244        2.4768446925       -5.2015397108
 H        -6.4976853327        0.8090703854       -5.4254545811
 H        -9.3255838847       -0.8350606421       -1.7414845292
 H       -10.3153139148       -0.0169059026       -2.7816500779
 H       -11.7383528587       -0.0351221900       -0.8440359703
 H       -10.7285972306        1.4201892370       -0.3729746889
 H        -8.4279193473       -0.2404919657        2.6251869926
 H        -8.0611631577        1.0768968160        3.7555363303
 H        -8.0789265535        1.6861807082        0.7792852539
 H        -6.6989347373        1.2393845644        1.8400241678
 H        -8.1111260518        4.9708271622       -1.0916362372
 H        -7.7900649544        6.6122405384       -0.3741982402
 H       -10.5331018278        5.4361874135       -0.3629683768
 H       -10.0087598254        6.3449539005       -1.6101169291
 H       -11.1602238384        8.9428113606        3.9998988857
 H        -9.7815145265        8.8713163281        2.8897953199
 H        -8.8861355092        8.3438838393        4.9302587467
 H        -8.9811503685        6.8131749434        4.1508304160
 H       -14.5365726196        7.1499327014        6.6617261031
 H       -13.3026334180        6.2312315157        7.3460014318
 H       -13.4799784799        6.2847755261        5.5494891133
 H       -11.1198980775        5.9265317682        8.0901920440
 H       -11.6232998289        7.3405205412        9.0061830932
 H        -9.8722840342        7.0077004150        8.7122472544
 H       -10.4576999503        9.7754735960        6.4384260950
 H        -9.3046333934        8.9449665510        7.5010201215
 H       -10.8482427214        9.4913442966        8.1033514887
 H       -12.6904336334        9.2437761571        0.2464446727
 H       -11.2574413084        9.8787196527        0.9296645391
 H       -12.3911083794        9.3921254248        2.0716796948
 H       -13.4720282004        7.1217755879        0.9226125076
 H       -12.4048218787        5.7504724400        0.8083653094
 H       -12.4490916121        6.9222221956       -0.5593149440
 H        -6.2733381910        5.4169714187        3.1122497962
 H        -5.3408224454        5.8391630344        1.6507152345
 H        -4.9100876365        4.3363854998        2.5028557480
 H        -5.2872901872        2.8931929400        0.3760152193
 H        -5.5896173407        4.4403626449       -0.3709092593
 H        -6.7866027349        3.2448316657       -0.5710823549
 H       -12.7617736425       -0.4352771482        1.1820244263
 H       -12.5749400013        1.2830978037        1.4028452702
 H       -12.7270614002        0.3357411204        2.9033148727
 H       -10.4886812118       -1.2872437075        4.0256567055
 H        -9.7542461053       -1.9209524362        2.4926111826
 H       -11.4495531414       -2.0041282898        2.8146268327
 H        -6.5668566576       -0.8668259466       -4.1532997090
 H        -7.9681102720       -1.6169439230       -3.3492084928
 H        -6.5841469877       -0.9448781738       -2.3375273972
 H        -6.6703753313        2.6667204819       -2.8679616814
 H        -5.6663842071        1.4540204050       -3.7397095578
 H        -5.9519449167        1.3731516774       -2.0397088251
 H        -7.6244448467        1.2639583006       -9.9479255686
 H        -8.1143624525        3.0745567088      -10.0182880446
 H        -8.8679640507        1.9656842125      -11.0734650927
 H       -10.1156909142        4.2489933680       -9.1507111047
 H       -11.4398298857        3.1724267362       -8.9570754501
 H       -10.5435101653        3.2302745912      -10.4984904230
 Na       -9.9040113615        4.2646468687        3.7937359519
