117

 C       -11.7861707761        0.5870706782       -8.8011264610
 C       -10.2730060079        0.6649292973       -8.9492409372
 O        -9.6073447390       -0.3664600506       -8.8562049950
 C        -9.5775146089        2.0610136565       -9.0658263808
 C        -9.0402775929        2.2784982046       -7.4947982323
 O        -9.4837384186        3.1760585997       -6.8151648610
 C        -7.9298317241        1.3071262978       -7.0669168210
 C        -7.4716195924        1.5491857127       -5.6795980904
 C        -8.3926794589        1.0368531501       -4.5454300951
 O        -9.5422757671        0.6133192895       -4.6847683135
 C        -7.5577179790        0.7101939043       -3.1706466585
 C        -8.6147662619        1.0166646616       -1.9906440525
 O        -8.4654586744        2.0658026254       -1.3785995589
 C        -9.8028195631        0.1022821870       -1.7142272855
 C       -10.6761173740        0.5519764105       -0.5588105325
 C       -10.1192077033       -0.2588501697        0.6712783679
 O        -9.1624753902       -0.9596013334        0.5543071561
 C       -10.8317345333       -0.0847646658        2.0220140504
 C       -10.0173270693        1.0981662364        2.6930511819
 O       -10.5249935153        2.0941978989        3.0924257737
 C        -8.5189491248        0.9024157730        2.8283907560
 C        -7.8623289824        1.7490202049        1.7869832000
 C        -7.5473344415        3.1178525846        2.3053432488
 O        -7.7671871718        3.4158526282        3.4672100246
 C        -6.9017141146        4.2089868135        1.3804640349
 C        -7.9531518479        5.2662442857        1.1114539739
 O        -8.6073078092        5.7119877938        2.0067527060
 C        -8.3187306308        5.6773897274       -0.3739160371
 C        -9.7330337651        6.2772776293       -0.5022545847
 C       -10.0649566273        7.4664393187        0.3696682726
 O        -9.2610053677        8.4138280621        0.4404836514
 C       -11.5305424064        7.6343329802        1.0913936040
 C       -11.1616909955        7.2258139676        2.5823572171
 O       -11.5114675755        6.1502838863        3.0480109925
 C       -10.4058741986        8.2563101259        3.4511063487
 C        -9.5910308446        7.6751121840        4.6420193658
 C       -10.3458550984        6.8705899431        5.7240415041
 O       -10.5170200505        5.6736973056        5.6364587058
 C       -11.0394882959        7.6829840536        6.9472596646
 C       -12.4592155525        7.9622605141        6.3680668432
 O       -12.6351145218        8.9899971970        5.7480338319
 C       -13.5200022449        6.8540147027        6.4348183525
 C       -10.9948227879        6.8377994982        8.2822469108
 C       -10.2572886552        9.0648824431        7.1443281180
 C       -11.8588777807        9.1225093771        1.0219471295
 C       -12.5937795711        6.7411837060        0.4338838451
 C        -5.8385181264        4.9916633282        2.2658574890
 C        -6.0768723274        3.7354163184        0.1078271121
 C       -12.3416854003        0.2148732651        1.9002414951
 C       -10.6526505378       -1.2348796341        2.9957207251
 C        -7.1118769343       -0.7972237649       -3.1501562395
 C        -6.3899459795        1.5981685013       -3.0372487220
 C        -8.3685141217        1.9621785926      -10.1040342954
 C       -10.4326209887        3.2614964844       -9.4362799709
 H       -12.2883708196        1.2376334883       -9.5141809221
 H       -11.9994600428        0.8320984239       -7.7677938050
 H       -12.1289476986       -0.4446068102       -8.9201611816
 H        -7.0607388443        1.3619732054       -7.6526523390
 H        -8.3977130941        0.3753046414       -7.2452309967
 H        -7.3532877673        2.6042482376       -5.4980431044
 H        -6.5244260488        1.1159697205       -5.4810661949
 H        -9.4773574734       -0.9343761935       -1.7027657540
 H       -10.3918493280        0.0608034249       -2.5990663107
 H       -11.7375702928        0.2539536979       -0.7439339403
 H       -10.5605247531        1.6306632147       -0.3046205377
 H        -8.3146910513       -0.1216190773        2.8438013770
 H        -8.2363864122        1.2925405700        3.7849454625
 H        -8.5619880974        1.8735219769        0.9747348413
 H        -6.9482493039        1.2289158242        1.4780658735
 H        -8.2233470612        4.7699261592       -0.9748444494
 H        -7.5943859913        6.4183306999       -0.6251242148
 H       -10.4761760961        5.4834367851       -0.3975549673
 H        -9.8261589530        6.5138386628       -1.5318990250
 H       -11.1113592688        9.0227056422        3.7823188611
 H        -9.6195031919        8.7708852408        2.8748370912
 H        -8.9775263217        8.5121130505        5.0499504407
 H        -8.8245484237        6.9960424128        4.1513726871
 H       -14.5691330611        7.2899390854        6.4202689917
 H       -13.5428369143        6.2586600801        7.2967499239
 H       -13.3438826385        6.2834629684        5.5001324753
 H       -11.5940673650        5.9349588636        8.1711974960
 H       -11.3689065601        7.3976059761        9.1012352942
 H        -9.9099998218        6.6322596043        8.3575140378
 H       -10.2520743427        9.6957802269        6.2452855427
 H        -9.2706503688        8.8450601334        7.4938229944
 H       -10.7551778694        9.6560408198        7.9052962115
 H       -12.3117205458        9.2851244523        0.0942225569
 H       -11.0202793585        9.7478401590        0.9925680247
 H       -12.4178396368        9.4406753105        1.8974726841
 H       -13.6091284229        7.0067188788        0.7777395652
 H       -12.4506592396        5.7361098424        0.8098438312
 H       -12.4404154906        6.8332631020       -0.6382464240
 H        -6.2998492269        5.2956130828        3.2237623121
 H        -5.4106065981        5.8684236744        1.7659547571
 H        -5.0161383327        4.2691404853        2.4060703291
 H        -5.1474592306        3.2021639664        0.3234346661
 H        -5.8040693023        4.6047718446       -0.4915974056
 H        -6.7003245882        3.1474388967       -0.5806899439
 H       -12.8704074772       -0.5962249005        1.4402671449
 H       -12.5899936083        1.0415231604        1.1930213276
 H       -12.6992730974        0.5048123133        2.8662342560
 H       -10.7890222825       -0.8785265097        3.9786773193
 H        -9.6894260559       -1.7914521606        2.8810553353
 H       -11.4648906254       -1.8754015645        2.8921343109
 H        -6.5206405731       -1.0809102605       -4.0083451997
 H        -8.0353120485       -1.4844343334       -3.1844262383
 H        -6.5391305796       -0.9907697828       -2.2142118103
 H        -6.6143868261        2.6499089250       -2.8798677161
 H        -5.8033233145        1.4816335408       -3.9363390873
 H        -5.7270850412        1.2841961601       -2.2505309411
 H        -7.7596193939        1.0869962407       -9.8185903908
 H        -7.8335890757        2.9426438673      -10.0802683713
 H        -8.7582806525        1.8466148320      -11.0986859675
 H        -9.9164359923        4.1622473260       -9.0831039627
 H       -11.4414397610        3.3407113901       -8.9379212343
 H       -10.5125455281        3.4695481205      -10.4829561434
 Na       -9.8861250531        4.3869628457        3.8116299141
