117

 C        -2.2699311797       12.8563589252        0.5125520253
 C        -3.5236009100       12.2273464264       -0.1760839833
 O        -4.5978093181       12.6691023021        0.0752682005
 C        -3.4434356655       10.9820423332       -1.2013281878
 C        -3.7518160043        9.7696631530       -0.2179346751
 O        -2.7854451311        9.3151694124        0.2929331596
 C        -5.2742863556        9.3476753548        0.1804613621
 C        -5.1123688055        8.3751755184        1.4059087440
 C        -6.3943528473        7.6502747630        1.6757991856
 O        -7.1371302753        7.2975394480        0.7690271374
 C        -6.7853108913        7.3873820002        3.1741679193
 C        -8.2578666145        7.0800484096        3.3251286875
 O        -9.0351274821        7.6525028147        4.0631463968
 C        -8.7724363049        5.8334707800        2.5057461730
 C       -10.0630336400        6.1682230895        1.7388311295
 C       -11.1267684478        5.0790403929        1.4948558507
 O       -10.7519013824        3.9197893504        1.3474618858
 C       -12.6831348887        5.5331891843        1.0795367383
 C       -13.4174078721        4.3085384337        0.4530731620
 O       -13.0992619200        3.7245142663       -0.6006012041
 C       -14.7387967585        3.8661690854        1.1948181115
 C       -15.3915058232        2.6404280507        0.5999969121
 C       -14.7655717759        1.2771876710        0.9614074292
 O       -13.9372119571        1.2764729147        1.8768332260
 C       -15.3148008034       -0.0311300879        0.3867565783
 C       -14.1846517385       -0.7132523780       -0.5659091392
 O       -13.2050190685       -0.0546866918       -0.9398096210
 C       -14.3772404683       -2.0668763692       -1.1455106582
 C       -13.2484797609       -2.7173278298       -1.8969640664
 C       -13.1259187131       -2.1126188081       -3.2508865443
 O       -14.0188820553       -1.5025463011       -3.7698044520
 C       -11.6951131933       -2.2511434880       -3.9447030832
 C       -10.5513863788       -1.6027578534       -3.0710132495
 O       -10.4115512806       -2.0893495794       -1.9819299171
 C        -9.6547095427       -0.4776873705       -3.6480594841
 C        -8.4740812197       -0.2143325754       -2.6834564495
 C        -8.9491874378        0.5934401519       -1.4611473265
 O       -10.0211218330        1.2460042138       -1.5640910080
 C        -8.1462867634        0.7083555791       -0.0616214184
 C        -8.9833452954       -0.0395162222        0.9614474605
 O       -10.1294882545        0.2008651579        1.1233554633
 C        -8.1463270942       -0.9252653016        1.9997846821
 C        -6.6778292621        0.3704875870       -0.3120186738
 C        -8.1768940537        2.2468483476        0.2709306942
 C       -11.1197200288       -3.7663405950       -4.0717356730
 C       -11.7343703215       -1.6240088515       -5.3292948939
 C       -15.5089740307       -0.8742760940        1.6581606058
 C       -16.5819369850        0.0998110831       -0.5229602444
 C       -13.4677453914        6.2111998576        2.1697230240
 C       -12.5718673873        6.5218555146       -0.0850247477
 C        -5.9739878206        6.0606539907        3.4945536652
 C        -6.3759996018        8.5615736365        4.0904342528
 C        -4.5242169559       11.2046212902       -2.3382401711
 C        -2.0018395107       10.8882285957       -1.7979051748
 H        -2.4816642106       12.5949439900        1.5253450435
 H        -2.3982450708       13.9646446621        0.5005530121
 H        -1.3244675806       12.5396979958        0.0765349123
 H        -5.8703616900        9.0134561439       -0.6614256435
 H        -5.7891476465       10.3056785353        0.4755757046
 H        -4.7036501901        8.9524646598        2.2045480635
 H        -4.4508348320        7.5756705589        1.2171186652
 H        -8.9141858081        5.0077760935        3.2559602058
 H        -8.0514063318        5.4140573576        1.6977364539
 H        -9.8342759140        6.5201514448        0.7379431435
 H       -10.5549338758        7.0549893645        2.1766566326
 H       -15.4650085220        4.6652468535        1.3968673183
 H       -14.3611347768        3.6561036381        2.2431954059
 H       -15.6666966951        2.7476969517       -0.5037473315
 H       -16.3850497522        2.5616711789        1.0609396936
 H       -15.2482650451       -2.1244740430       -1.8357871211
 H       -14.6978182975       -2.7610157318       -0.3414199686
 H       -13.4726231996       -3.8371584578       -1.9872881241
 H       -12.3020172824       -2.5449654049       -1.3419624282
 H       -10.2859187060        0.3912731835       -3.7133066181
 H        -9.2575000024       -0.7153154649       -4.6228055377
 H        -7.6586431201        0.4019455573       -3.1297996981
 H        -8.0537203001       -1.1943960450       -2.4295305027
 H        -7.5909611715       -1.7037714574        1.5706251021
 H        -8.9250074325       -1.2625872629        2.8128549886
 H        -7.4502061225       -0.2429974736        2.4631210157
 H        -6.2105893108        1.1127023300       -0.9398698912
 H        -6.5233883698       -0.5153725531       -0.7809556595
 H        -6.1319445638        0.2897615970        0.6934279944
 H        -9.1062958783        2.5929241484        0.8030305509
 H        -7.9997951417        2.8383491736       -0.6801439010
 H        -7.3517108106        2.5795984281        0.8934055450
 H       -11.8587919065       -4.3897402340       -4.5281912574
 H       -10.8268037105       -4.0495590688       -3.0924932910
 H       -10.2258442771       -3.6603868627       -4.6968489517
 H       -11.9218390399       -0.5625212388       -5.4007268406
 H       -12.3709705736       -2.3194230858       -5.9006571764
 H       -10.6807338275       -1.6615050592       -5.7396484517
 H       -15.7761824698       -0.3014295402        2.5470730693
 H       -14.6007377695       -1.4349262412        1.8341957081
 H       -16.3509788095       -1.5691392355        1.6161777384
 H       -17.4561846492        0.4985171200        0.0825631286
 H       -16.8972198395       -0.9589347162       -0.7672753297
 H       -16.4304785586        0.7097420475       -1.3932106484
 H       -14.2878094770        6.6626838833        1.7377996904
 H       -12.8527354733        7.0560268162        2.4549038374
 H       -13.6893923192        5.4853056809        2.9934308556
 H       -11.9062298984        6.1270435757       -0.8663007591
 H       -12.3103436128        7.5440520223        0.2962143599
 H       -13.5176815806        6.6683872590       -0.5879252485
 H        -5.0156028009        6.1253102192        2.9942607100
 H        -6.3552308980        5.1603289720        2.9936344092
 H        -5.8273767834        5.8409526774        4.5598005092
 H        -6.9649832896        9.4061063926        3.7446923448
 H        -5.2713678358        8.6174764901        4.0737933824
 H        -6.5894164438        8.2476997252        5.1115948266
 H        -5.3243335311       11.8386457261       -1.9310513624
 H        -4.9219677325       10.2588941377       -2.8034595657
 H        -4.0841119702       11.6925852136       -3.2887137581
 H        -1.8083945528       11.9474162872       -2.1095180489
 H        -2.0636048214       10.1785446183       -2.6723824121
 H        -1.1857288692       10.5942899349       -1.1752757572
 Na      -11.7551493522        1.8432802470        0.2156638931
