117

 C       -11.6756761459        0.1570180472       -8.5328790303
 C       -10.3515346472        0.3760820346       -9.2387526635
 O        -9.7737490411       -0.4519374173       -9.8791998060
 C        -9.6652619668        1.8233192907       -8.9822431276
 C        -9.4821695219        1.8954435004       -7.4605383102
 O       -10.2464958874        2.6229491874       -6.8561834783
 C        -8.3720087510        1.2093800179       -6.7525273520
 C        -8.0955196757        1.8375728714       -5.4055182811
 C        -8.2057775372        0.5801473433       -4.3325351120
 O        -8.8504490122       -0.4057319931       -4.5192635535
 C        -7.4381190448        0.7334816075       -2.9139780164
 C        -8.5828102307        0.9518147535       -1.8404713726
 O        -8.4431416166        1.9768617319       -1.2407991981
 C        -9.8788303683        0.1529095332       -1.7251547451
 C       -10.6620266419        0.5271838825       -0.4967152974
 C       -10.4931850666       -0.3443824279        0.8349713321
 O       -10.0878067058       -1.4998712191        0.8121508461
 C       -11.0938458335        0.2635213909        2.2169866794
 C       -10.2296574329        1.4735566179        2.6657679286
 O       -10.7143554631        2.6085297732        2.5742689273
 C        -8.6592118628        1.1369808109        3.0067918466
 C        -7.7451349162        1.8874675982        2.0414458042
 C        -7.3874481776        3.2930223187        2.5321792572
 O        -7.5951577844        3.6225366918        3.7258966270
 C        -6.8021606189        4.3784054144        1.5298272024
 C        -8.0421511817        5.1953651456        1.0228366933
 O        -9.0925674336        5.2493918944        1.6321852966
 C        -7.9451695305        5.8361549566       -0.3667657390
 C        -9.2808147517        6.5337412646       -0.6571608667
 C        -9.6559288933        7.6927246451        0.3233838033
 O        -8.7899745700        8.4396663582        0.6525451116
 C       -11.1426579464        7.7204224585        0.9272966613
 C       -10.9876876425        7.2581334430        2.4199568066
 O       -11.5223707586        6.2235842601        2.7788305237
 C       -10.0043829861        8.0612074736        3.3679223719
 C        -9.3417263434        7.3285094698        4.5748356505
 C       -10.3544163876        6.7291574445        5.6247791697
 O       -10.6003417477        5.5323851288        5.5984366446
 C       -11.0055174629        7.5685478959        6.8230742512
 C       -12.1455471124        8.2630853340        5.9861813034
 O       -11.9685580518        9.3274241958        5.4191826461
 C       -13.4024544849        7.4104822542        5.8505562598
 C       -11.4869032498        6.6243109990        7.9128078348
 C       -10.0643682411        8.6865570058        7.3244485372
 C       -11.6462534951        9.1601971514        1.0305950156
 C       -12.1167548230        6.7431872019        0.1862646490
 C        -5.9528460874        5.4316609853        2.3290641718
 C        -6.0329045514        3.7328671894        0.4010188379
 C       -12.5682770645        0.7552377353        1.9709830127
 C       -10.9566462752       -0.7804294991        3.4123160894
 C        -6.7225039708       -0.6282784978       -2.7476030593
 C        -6.4514582874        1.9287296276       -2.9042171669
 C        -8.3151729232        1.9385421411       -9.7719637795
 C       -10.6735214584        2.8351129687       -9.4180814847
 H       -12.4859835847        0.1462521681       -9.2407756548
 H       -11.9361565373        1.0129198587       -7.8702793894
 H       -11.4524266718       -0.7527191510       -7.9390957302
 H        -7.3998785737        1.1835731631       -7.3026713833
 H        -8.6725726346        0.1143167620       -6.6557901558
 H        -8.8493753944        2.6788946090       -5.1440343939
 H        -7.0414518226        2.3254315139       -5.3462796834
 H        -9.6757579536       -0.9524793056       -1.8619428153
 H       -10.4586356551        0.3898558861       -2.6339823458
 H       -11.6914429036        0.5940572879       -0.7932668390
 H       -10.3682084999        1.4993357430       -0.1376172241
 H        -8.6121387189        0.0575349338        3.1281889909
 H        -8.4559775683        1.4720093892        4.0925732187
 H        -8.0649906031        1.8792572788        0.9975554522
 H        -6.7634442019        1.3632338874        1.9963488218
 H        -7.7407445369        4.9654573335       -1.0193967856
 H        -7.0525678513        6.4478018598       -0.3802524808
 H       -10.0152677979        5.7157933622       -0.7088363805
 H        -9.1481939980        6.9071142885       -1.6278938950
 H       -10.5317011267        8.9048557342        3.7993937138
 H        -9.2659436048        8.5661336063        2.7129660253
 H        -8.7109990949        8.0439979352        5.0543997820
 H        -8.7447969122        6.4804017708        4.2761739780
 H       -13.1627218281        6.3860653999        5.8008340824
 H       -13.7819204249        7.6169643294        4.8577569248
 H       -14.2836445972        7.6679691750        6.4484088738
 H       -12.3788021181        6.0401554643        7.6112859440
 H       -11.6622872847        7.2429855049        8.7580669444
 H       -10.6723495401        5.8857029310        8.1240640735
 H        -9.8988114080        9.4523431856        6.5676037019
 H        -9.1018956389        8.3375633000        7.7483770214
 H       -10.6381333063        9.1826874564        8.1565735150
 H       -12.4974496116        9.2684253738        0.3683017432
 H       -10.7755819875        9.8857764091        0.8836922430
 H       -12.1974503529        9.3456769938        1.9493790562
 H       -13.1347140897        6.7459221471        0.5601831836
 H       -11.6308898165        5.7606725267        0.1625737493
 H       -12.2128037190        7.0753247445       -0.8532933829
 H        -6.4917687274        5.7232151243        3.2077412918
 H        -5.8327931907        6.2823663534        1.7199535278
 H        -4.9857200089        5.0487094117        2.6541321435
 H        -5.4136355645        2.9292690943        0.7180205763
 H        -5.3938810639        4.3720672955       -0.2646853652
 H        -6.7014298280        3.1916072120       -0.2504374209
 H       -13.2735621866       -0.0635372451        1.8404073253
 H       -12.6057481898        1.5293826902        1.2278049918
 H       -12.9530431027        1.2946962736        2.8442455080
 H       -11.0379957959       -0.3158470148        4.3645608318
 H       -10.1060626174       -1.4660737035        3.4356477124
 H       -11.8491177271       -1.4741207190        3.2288729601
 H        -5.8808795855       -0.6174842981       -3.4468860973
 H        -7.3646348788       -1.3829233859       -3.0351242527
 H        -6.4184949055       -0.7889891886       -1.7316211727
 H        -6.9211413848        2.8442494332       -3.3375276076
 H        -5.6866350324        1.6109886025       -3.5701737222
 H        -6.0734071586        2.1198341772       -1.8753888205
 H        -7.6382964110        1.1342047363       -9.5333723693
 H        -7.7907541785        2.8067010526       -9.3523990128
 H        -8.5121032889        1.9774652724      -10.8628968664
 H       -10.3888420680        3.8632311385       -9.2438722144
 H       -11.6690607527        2.7172039706       -9.0053848836
 H       -10.8315179771        2.6434081778      -10.4752543351
 Na       -9.9299311289        4.6578253499        3.6932470741
