117

 C       -11.5721995813        0.1234143178       -8.4091653706
 C       -10.3058666829        0.3582575840       -9.2076641862
 O        -9.7822106010       -0.4859735367       -9.9383829577
 C        -9.7111858060        1.8388641087       -9.0568890157
 C        -9.5370424087        1.9975359058       -7.4627569775
 O       -10.4264285209        2.5243293747       -6.7955015705
 C        -8.4854249977        1.0673209322       -6.7744570779
 C        -8.1928330717        1.5894270698       -5.3873708730
 C        -8.1803070446        0.5741301738       -4.2604143779
 O        -8.7976579803       -0.4876659981       -4.4319049575
 C        -7.4386690494        0.8030026584       -2.9883314394
 C        -8.5258056853        1.0065269850       -1.8014739232
 O        -8.4128472072        1.9217852033       -0.9902561017
 C        -9.8101035841        0.0828677970       -1.6848984991
 C       -10.7629837020        0.5456555350       -0.4915663446
 C       -10.5939324059       -0.2940748926        0.8037346965
 O       -10.1028620461       -1.3708491021        0.7079118610
 C       -11.1022638620        0.3248121088        2.1540424221
 C       -10.1685906043        1.5095401773        2.5500473835
 O       -10.5767975016        2.6486247394        2.5947234666
 C        -8.7715319392        1.2282932864        2.9904818787
 C        -7.8223656627        1.9881273774        2.1012927972
 C        -7.4552862480        3.3625921421        2.6103936097
 O        -7.6338768397        3.6134391028        3.8006244595
 C        -6.8538611638        4.3359231006        1.5604045685
 C        -8.0118152495        5.0868853534        0.9068997030
 O        -9.0469004471        5.1588045016        1.4968079341
 C        -7.9247742400        5.9177361722       -0.4987638049
 C        -9.2644943332        6.5334001357       -0.7694002810
 C        -9.5857182101        7.6443771544        0.3306035019
 O        -8.7462263747        8.4403766271        0.6637333021
 C       -10.9913988054        7.6497709749        0.9580483000
 C       -10.7981100026        7.1839237305        2.4503952187
 O       -11.4680719026        6.2824760085        2.9193845638
 C        -9.9014469149        8.0396500894        3.3294614654
 C        -9.4445072997        7.3558085993        4.5770243308
 C       -10.3534869655        6.6905546319        5.6200853591
 O       -10.6662528927        5.5237730867        5.5295392469
 C       -11.0402370810        7.5225113218        6.7783125354
 C       -12.1622016997        8.2030797914        5.9503368890
 O       -11.9327740114        9.3103607695        5.5603740742
 C       -13.5081141551        7.4942327003        5.7233130957
 C       -11.5695512942        6.7697100137        7.9835143274
 C        -9.9848859587        8.6026807330        7.2366173266
 C       -11.6105245154        9.1386702704        0.9800257583
 C       -12.0594873435        6.8653977630        0.2056924228
 C        -5.9818167228        5.4443053968        2.3816228377
 C        -6.0337937684        3.7136592626        0.4006748644
 C       -12.5215621767        0.6794357998        1.9732227365
 C       -11.0444851231       -0.5581160878        3.4191170319
 C        -6.6920864646       -0.5950549742       -2.7061161657
 C        -6.3542249028        1.8748451438       -2.9443741079
 C        -8.2922681507        1.9319364627       -9.6384213107
 C       -10.7804617214        2.8455153989       -9.5871528309
 H       -12.4046506602       -0.0788692038       -9.0776535311
 H       -11.8363512913        1.0811641123       -8.0154860038
 H       -11.3665073068       -0.5840080807       -7.6571761899
 H        -7.5193649755        1.0519080092       -7.2719483287
 H        -8.8702777546        0.0524865611       -6.7975304363
 H        -9.0302589994        2.2717047655       -5.0626699251
 H        -7.2621510537        2.2600668412       -5.3458224828
 H        -9.4519913201       -0.9355706345       -1.4685921341
 H       -10.3406042374       -0.0049132797       -2.6221192744
 H       -11.7384312803        0.3975726288       -0.8575216502
 H       -10.7237047226        1.6259004873       -0.1308906161
 H        -8.6943760953        0.1578555334        3.0296334677
 H        -8.7892868621        1.4588585019        4.0453409964
 H        -8.2441018083        2.0572799012        1.1026174217
 H        -6.9162914596        1.4151793358        1.8909992469
 H        -7.5709476628        5.3018367620       -1.2933424856
 H        -7.1830031273        6.6748482815       -0.3443522880
 H        -9.9653340749        5.7736556421       -0.8971484158
 H        -9.0710228462        7.0036053178       -1.7053566908
 H       -10.3404846266        9.0276865448        3.4934919037
 H        -8.9819982888        8.3036809437        2.7732843445
 H        -8.7814662672        8.1140553217        5.0637946835
 H        -8.8050010123        6.5368941453        4.2626467759
 H       -13.3291971362        6.4914735378        5.8963899780
 H       -13.8837203155        7.5439491602        4.6722868259
 H       -14.3536928080        7.8824679781        6.2569664301
 H       -12.4428100267        6.1686480037        7.8185049324
 H       -11.7102420597        7.5963156925        8.6983797559
 H       -10.8206493809        6.1357605668        8.3599409839
 H        -9.7381572325        9.3586912997        6.5174582097
 H        -9.0496511103        8.1017135619        7.5711353028
 H       -10.4233735060        9.1280112302        8.0946769171
 H       -12.2359670139        9.2204046539        0.0629192122
 H       -10.7861401164        9.8850849649        1.0676409024
 H       -12.4080156351        9.2745540523        1.6997846316
 H       -13.0132580130        7.0696206570        0.6435353452
 H       -11.8558466554        5.7952364638        0.1277657872
 H       -12.1283994916        7.2390759895       -0.8118070960
 H        -6.5019054807        5.6105957366        3.3105352372
 H        -5.8106060346        6.4135533130        1.9193377618
 H        -5.0699488066        4.9428122108        2.6505687259
 H        -5.3600439017        2.9029943745        0.5897138174
 H        -5.4578719720        4.5142324911       -0.0592264921
 H        -6.6321684290        3.2725560019       -0.3746919315
 H       -13.0665409118       -0.2981936794        1.8029979106
 H       -12.7402326626        1.4899420042        1.2852091377
 H       -12.9875962164        1.0893008512        2.9253179154
 H       -11.1795503506        0.0958737614        4.3204815021
 H       -10.1462316688       -1.0502317043        3.5534904158
 H       -11.7983132130       -1.3502353145        3.4070913633
 H        -5.7795256939       -0.4991273750       -3.3534618012
 H        -7.1785343571       -1.5325000626       -2.9285565232
 H        -6.3983061663       -0.4950447483       -1.6537035913
 H        -6.7668985539        2.8842194203       -2.9609870519
 H        -5.7230505899        1.6934198639       -3.8155874705
 H        -5.8251881112        1.7014274844       -1.9789156521
 H        -7.6536652910        1.0247317290       -9.5743439037
 H        -7.7846914884        2.7323825633       -9.0793404567
 H        -8.4217036006        2.2013376616      -10.7339582189
 H       -10.3430013107        3.8535720193       -9.5782177823
 H       -11.6080293777        2.9292577418       -8.9376845648
 H       -11.2446321635        2.5803989603      -10.5802566943
 Na       -9.9251082598        4.6393913451        3.6367752037
