117

 C       -11.5869128109       -0.0707117417       -8.3400444090
 C       -10.3290201922        0.3622651769       -9.2180923785
 O        -9.7996892622       -0.4457214418       -9.9222435031
 C        -9.7070194566        1.9006748244       -9.0104979648
 C        -9.7367091733        1.8879811069       -7.4636892788
 O       -10.5042945234        2.5042891092       -6.7663120328
 C        -8.6476738774        1.0567728900       -6.8155058738
 C        -8.2853207811        1.5568174724       -5.3783905559
 C        -8.2243181658        0.4370702781       -4.2799484860
 O        -8.8437906759       -0.6101985955       -4.4249992109
 C        -7.3980338159        0.7662446125       -2.8127836852
 C        -8.4833717739        1.0278141169       -1.6903478449
 O        -8.2890100311        1.9311470629       -0.8488806871
 C        -9.6738128618        0.0682209492       -1.5452899682
 C       -10.7626058276        0.5541281948       -0.5844096449
 C       -10.5686213666       -0.2832588087        0.7076601950
 O       -10.0537790386       -1.3666517244        0.7333181487
 C       -11.1791353863        0.3971019227        2.1296709177
 C       -10.2080376686        1.6154844108        2.5604598083
 O       -10.6411232247        2.7413947760        2.5522840544
 C        -8.7416856769        1.2653996937        2.9408954010
 C        -7.7621327653        1.9754396048        2.0647695051
 C        -7.4109940589        3.3939581352        2.6121370782
 O        -7.6607488869        3.7616144295        3.7226748572
 C        -6.8467875001        4.3696032115        1.5813733424
 C        -8.0394216300        5.1532912014        0.8996734784
 O        -9.1979752655        5.1856113519        1.3323009028
 C        -7.8642197201        5.9298062376       -0.4437728025
 C        -9.1975894952        6.6463821426       -0.8630582738
 C        -9.5795984438        7.6020266262        0.2185002320
 O        -8.6868313486        8.3887328226        0.6264763765
 C       -11.0049230832        7.6701812098        0.9345002379
 C       -10.8024002713        7.2273311282        2.4828522995
 O       -11.4260541116        6.2818958515        2.9316768120
 C        -9.8392628894        8.0282437426        3.4168685584
 C        -9.3254275442        7.2731518971        4.7050033715
 C       -10.4032433050        6.6108496915        5.6029005149
 O       -10.7246651576        5.4260216835        5.5388883419
 C       -10.9950551601        7.5482572642        6.7708452369
 C       -12.2051522052        8.3170770786        5.9896840509
 O       -12.0791296694        9.4376420759        5.5106444807
 C       -13.5196967311        7.6244210363        5.5911865156
 C       -11.5453926425        6.7864433115        7.9961357454
 C        -9.9314342030        8.5580161878        7.2111233908
 C       -11.3945115349        9.2015533189        0.9621783691
 C       -12.0483527752        6.8022165960        0.2830232354
 C        -5.9807512110        5.4002722733        2.3343317063
 C        -5.9206301417        3.6822761524        0.5590713134
 C       -12.6547913958        0.7957449481        1.9303423933
 C       -11.0829078790       -0.6054686977        3.3241318756
 C        -6.6856503094       -0.6107780678       -2.4873273803
 C        -6.3932672681        1.8917377743       -2.9166189230
 C        -8.3262650882        1.9899266408       -9.6631222426
 C       -10.6736492721        2.8344624639       -9.6863947377
 H       -12.2728387592       -0.6122857140       -8.9922848361
 H       -12.1028648702        0.7778032911       -8.0254082180
 H       -11.1726828422       -0.6760969468       -7.5721403684
 H        -7.7558593211        0.9405602865       -7.3812774287
 H        -9.0031282978        0.0679043977       -6.6444708785
 H        -9.0926503236        2.1586549079       -4.9907282200
 H        -7.4297428409        2.1306268564       -5.2951761420
 H        -9.2733947484       -0.8360704150       -1.1425799657
 H       -10.0688733464       -0.1605521410       -2.5419311869
 H       -11.7388120400        0.2477649178       -1.0575207585
 H       -10.8528709828        1.6311408330       -0.3111783909
 H        -8.7516503053        0.1807890368        2.8507128897
 H        -8.6679273126        1.4290783784        3.9527671831
 H        -8.1410678757        2.0341836877        1.0309994734
 H        -6.8820856362        1.3769337810        1.8838786243
 H        -7.5111912657        5.2215169729       -1.1650689302
 H        -7.0136193603        6.5800823889       -0.2461678873
 H        -9.9218971770        5.8590268570       -0.9257756810
 H        -9.0154941138        7.0832938136       -1.8729643309
 H       -10.4253767135        8.9234901239        3.7247231253
 H        -9.0193218159        8.4958100911        2.8747664722
 H        -8.7561201512        8.0582651026        5.2682657076
 H        -8.5928751779        6.4542860826        4.4658105997
 H       -13.4904601672        6.4992416413        5.8242724646
 H       -13.8993637734        7.7921738064        4.6055825558
 H       -14.3022765553        8.0911272639        6.1621475739
 H       -12.2103324541        6.0302179490        7.6675026573
 H       -12.0038030931        7.5545725876        8.6131968157
 H       -10.7983020891        6.2903618044        8.5749993952
 H        -9.6840360523        9.3671525590        6.5071277941
 H        -9.0204786285        8.0455577413        7.4641659723
 H       -10.3255584450        9.0505166109        8.0592795974
 H       -11.5009651512        9.5715058585       -0.0665543100
 H       -10.6670925182        9.6836844449        1.5298717395
 H       -12.4230143139        9.3611104078        1.3326691983
 H       -13.0219940723        7.0500001751        0.7260672185
 H       -11.8546959659        5.7561465448        0.4793357340
 H       -12.1123060724        6.8805169862       -0.8041430240
 H        -6.5463497528        5.6712319601        3.2455975981
 H        -5.7337449810        6.3548365479        1.8174088511
 H        -5.0989691446        4.8511551924        2.6386074775
 H        -5.1523579360        3.0353612726        1.0116747172
 H        -5.4051951500        4.3452045686       -0.0487065746
 H        -6.4129343183        2.9556192109       -0.0813495271
 H       -13.1767625728       -0.1290690047        1.6105479423
 H       -12.8048234576        1.6845313364        1.2492861496
 H       -13.1934635026        1.1627623823        2.8267954583
 H       -11.2706350755       -0.0431498030        4.2485475958
 H       -10.0360390408       -0.9481341046        3.4297402956
 H       -11.6767486031       -1.4326972165        3.2788711590
 H        -5.9322990095       -0.6426950043       -3.2701868546
 H        -7.3280949403       -1.5828998698       -2.6221856109
 H        -6.2364113983       -0.5476156439       -1.4653782898
 H        -6.9075315917        2.8038191714       -2.6876955793
 H        -6.0281965477        1.8939395779       -3.9740324169
 H        -5.6125670742        1.7579111089       -2.2012065020
 H        -7.8240241545        0.9853711161       -9.8238284005
 H        -7.6184399823        2.7177168636       -9.1813410504
 H        -8.6087838563        2.3350296598      -10.6635397993
 H       -10.1014966606        3.7439273742       -9.9141762455
 H       -11.5012234758        3.2136783400       -9.0577021239
 H       -11.1712380326        2.3974262338      -10.5507927708
 Na       -9.8904852444        4.5159044299        3.5504665085
