117

 C       -11.5678270488       -0.2105213273       -8.3890469721
 C       -10.3854466883        0.2979622400       -9.2221311061
 O        -9.7671677101       -0.3923369726       -9.9634480593
 C        -9.8168432666        1.8173734758       -9.0024604086
 C        -9.7176103876        1.9436611499       -7.3915760568
 O       -10.6183591176        2.5343266383       -6.8406989525
 C        -8.7151117192        0.9845872587       -6.6578948051
 C        -8.3844306910        1.5210112189       -5.2445610037
 C        -8.2791092889        0.4092855183       -4.1883724267
 O        -8.7780823589       -0.6546721203       -4.3432791446
 C        -7.4322225151        0.6841530032       -2.8604666694
 C        -8.4312633366        0.9765425922       -1.6060138448
 O        -8.1623692228        1.9452126823       -0.9312158607
 C        -9.5697747377        0.0102947024       -1.4735415792
 C       -10.6701738650        0.4768528906       -0.5571838717
 C       -10.6253951872       -0.1892448427        0.8018972191
 O       -10.0444270395       -1.2690379790        0.9022857636
 C       -11.1821240060        0.4019893261        2.0918483522
 C       -10.3259871024        1.5650512020        2.4754515091
 O       -10.8092367244        2.6979856623        2.4683281873
 C        -8.7966255629        1.2425454467        2.8901500171
 C        -7.7238611254        2.0050000568        2.1241826607
 C        -7.4743008282        3.4679694612        2.5111697613
 O        -7.7349582625        3.8230918240        3.6601877207
 C        -6.8053901270        4.4907161325        1.5497195990
 C        -8.0756443480        5.1847439356        0.8181496383
 O        -9.1994438807        5.1486998941        1.3313747763
 C        -7.8149505582        5.9056222768       -0.4889187486
 C        -9.1098810334        6.6471424044       -0.8981402205
 C        -9.4888136856        7.5835266504        0.2602545804
 O        -8.6469431195        8.3822865700        0.6235761864
 C       -10.9278947220        7.7247581918        1.0104723117
 C       -10.7601436550        7.2774754822        2.5421137356
 O       -11.3880678657        6.2723473834        2.8210252635
 C        -9.8715470771        8.0154258487        3.5551703511
 C        -9.2942017581        7.0851418544        4.6915966160
 C       -10.3706355098        6.6386905236        5.6520028240
 O       -10.7257332456        5.4575557069        5.5601893625
 C       -11.0467186269        7.6223175657        6.6405713676
 C       -12.2440066447        8.4587854526        5.8969529573
 O       -12.0317970997        9.5968882661        5.5541038974
 C       -13.5022909507        7.6191472782        5.6079285711
 C       -11.5683965539        6.7580037655        7.8204853954
 C       -10.0144253914        8.5966131876        7.2124335410
 C       -11.2025665916        9.2440272723        0.9423088260
 C       -11.9939755190        6.7615004574        0.3894299343
 C        -5.9655755765        5.5186984649        2.3083648408
 C        -5.8342090942        3.7018647958        0.6124848262
 C       -12.6277374834        0.9616979561        1.8529883434
 C       -11.1496141141       -0.7516168952        3.1266740517
 C        -6.7337102483       -0.5986042280       -2.3277630025
 C        -6.5171873999        1.8736668218       -2.9397242318
 C        -8.4158886045        1.8888697499       -9.6574069218
 C       -10.7021907595        2.8814013615       -9.6613738683
 H       -11.9734084838       -1.0350508593       -8.9432428523
 H       -12.3163285636        0.5735126385       -8.2381681679
 H       -11.0439889753       -0.6048033677       -7.4949985590
 H        -7.7880755421        0.7646133135       -7.1618189724
 H        -9.1681262684        0.0105359388       -6.4568408380
 H        -9.0772628415        2.2196747061       -4.9071700503
 H        -7.4248566633        1.9175353314       -5.2093056553
 H        -9.1973628141       -1.0018028735       -1.3272903738
 H        -9.9538444147        0.1034096284       -2.5099084825
 H       -11.6757878721        0.2546035952       -1.0815369808
 H       -10.6232224367        1.5365871603       -0.4328603835
 H        -8.7618730150        0.1705543311        2.8032654577
 H        -8.7643889815        1.4770190129        3.9760348812
 H        -7.7017596044        1.8255843251        1.0428996665
 H        -6.7619538341        1.5316290344        2.3969936368
 H        -7.3033954571        5.1901014184       -1.1710264904
 H        -6.9866102979        6.5611983785       -0.1397394413
 H        -9.8839458602        5.8364750207       -1.1682442257
 H        -8.8577581301        7.2589526401       -1.7979484406
 H       -10.4588278903        8.8788222838        3.9260771333
 H        -9.0662728434        8.5195967177        3.0238211203
 H        -8.4486753047        7.6029862752        5.1323554827
 H        -8.9009865150        6.1304985034        4.2586456512
 H       -13.3750653029        6.5310661214        5.8501967389
 H       -13.9451214676        7.7786715762        4.6335725692
 H       -14.3428227869        8.0749927525        6.2114425975
 H       -11.9077020048        5.7953423472        7.4262004844
 H       -12.2426709753        7.2823325742        8.4257684397
 H       -10.7038081797        6.4735978679        8.4703394080
 H        -9.7900138786        9.4489313688        6.5704862178
 H        -9.0994086881        8.0870777573        7.3331512331
 H       -10.3934076117        9.0114387467        8.1288021702
 H       -10.9039335563        9.6649191821        0.0187797774
 H       -10.7506041250        9.7145763305        1.7908736837
 H       -12.2666431257        9.3873156844        0.9681702236
 H       -13.0044421456        6.9757584115        0.8268070112
 H       -11.7542204339        5.7179143224        0.6563182892
 H       -12.0146054722        6.7407119874       -0.7144921310
 H        -6.5977397576        6.0829968995        3.0307228049
 H        -5.6206728581        6.2859279674        1.6009738118
 H        -5.0935352851        5.0207984101        2.7995079683
 H        -5.0575478085        3.2341777582        1.2013330792
 H        -5.2777674100        4.1711584501       -0.1938352548
 H        -6.2811661940        2.8082761820        0.1996220210
 H       -13.2862190730        0.2229703442        1.4385002864
 H       -12.5581039909        1.8685409420        1.2252507038
 H       -13.0654099377        1.4024721114        2.7217364025
 H       -11.4495053860       -0.4195903497        4.0622339879
 H       -10.1481372482       -1.2324385798        3.2524182631
 H       -11.8804358800       -1.5215405002        2.7845065348
 H        -6.0269279881       -0.9722702935       -3.0748694951
 H        -7.4890453111       -1.3897162204       -2.2336399171
 H        -6.2893965241       -0.3523562308       -1.3326448596
 H        -7.1254155017        2.7458928546       -2.6957886779
 H        -6.0611764703        1.9422523058       -3.9053005928
 H        -5.8026068022        1.7871242267       -2.1617276046
 H        -7.8908824412        0.9320729150       -9.6467465054
 H        -7.8277125608        2.7062743316       -9.1146584128
 H        -8.4976324102        2.2246640497      -10.6797164529
 H       -10.0414552216        3.7236446987       -9.8248910164
 H       -11.5617104126        3.3358051915       -9.0869013680
 H       -11.1499815783        2.5014517287      -10.5545724422
 Na       -9.8652971920        4.4417150043        3.5174401587
