117

 C       -11.6507611705       -0.3053906800       -8.5844559534
 C       -10.3879959944        0.1577455874       -9.3220472533
 O        -9.8029152952       -0.4644868996      -10.1747450896
 C        -9.8036783282        1.6274228850       -8.8026261293
 C        -9.8762075584        1.8319872137       -7.2798814572
 O       -10.5987388841        2.6774555413       -6.7500045119
 C        -8.9928953898        0.9204863968       -6.4847070235
 C        -8.6332864361        1.4795554482       -5.1179499268
 C        -8.2087260156        0.3532627284       -4.1382340768
 O        -8.7066158678       -0.7756706465       -4.2587233332
 C        -7.3862652099        0.6437368807       -2.8631355726
 C        -8.4040246468        0.9930053284       -1.7076768135
 O        -8.3781447394        1.9651096854       -0.9307411146
 C        -9.6464370913       -0.0280342168       -1.5296757331
 C       -10.6142313180        0.5126760940       -0.4697516004
 C       -10.5832171594       -0.3259028931        0.7952856801
 O        -9.7825161984       -1.1973571048        0.8713546010
 C       -11.3293236348        0.3493306758        2.0568608382
 C       -10.3554635696        1.5415098891        2.5829056533
 O       -10.7873267272        2.6539528119        2.4259866977
 C        -8.8680278110        1.2987530710        3.1303288426
 C        -7.8155140414        2.0131718028        2.2237568067
 C        -7.4326418168        3.5104026232        2.5925074320
 O        -7.7846504020        3.9640304260        3.6544116924
 C        -6.6854963557        4.4609545139        1.4932859808
 C        -7.9719398687        5.0379906308        0.7808472594
 O        -9.0697032442        5.1409473918        1.2931671690
 C        -7.7852187779        5.8316188351       -0.5895412923
 C        -9.0408043392        6.6862324814       -0.7546271818
 C        -9.2053047460        7.6739832241        0.3866111443
 O        -8.3005079154        8.3702172841        0.8561531856
 C       -10.7998922805        7.7848898661        1.0226297111
 C       -10.6676847001        7.2979317868        2.4393057951
 O       -11.1637412959        6.2365477546        2.8196983787
 C        -9.7695413531        8.0942545731        3.4519613943
 C        -9.2411245753        7.2480154884        4.6354752047
 C       -10.3335280049        6.6436464225        5.5854959147
 O       -10.6406794810        5.4715568840        5.4390061079
 C       -11.0003807190        7.5876005764        6.5790040969
 C       -12.2060148972        8.4187331340        5.8141676905
 O       -11.9902244962        9.6000729886        5.6138611982
 C       -13.5353101978        7.7602506018        5.5486414108
 C       -11.7376020471        6.8335573437        7.6799542394
 C       -10.0703676494        8.6440574907        7.1417842012
 C       -11.1717639962        9.2727046895        0.9729900685
 C       -11.8213034258        6.9616152946        0.1969815633
 C        -6.1706696264        5.7279990690        2.2596474205
 C        -5.7013894060        3.8038639658        0.5099245420
 C       -12.7277811273        0.9232529119        1.6335444701
 C       -11.7170257371       -0.7180122940        3.1557815152
 C        -6.5702460144       -0.6126978693       -2.4566440461
 C        -6.2986670778        1.8118482401       -3.0355922020
 C        -8.4422834662        1.8113928055       -9.4340234919
 C       -10.7917884478        2.6633453395       -9.3528627339
 H       -11.7185249525       -1.4199916534       -8.8170010679
 H       -12.4734768984        0.2655417060       -9.0338791494
 H       -11.5024596624       -0.2007997800       -7.5103809931
 H        -8.0245570487        0.6494324567       -6.9708499682
 H        -9.4868385413       -0.0804565298       -6.3054981605
 H        -9.6368038481        1.8654848207       -4.6353860653
 H        -7.7989358788        2.2697512989       -5.1735313021
 H        -9.2479028303       -1.0285733621       -1.2188377842
 H       -10.1372923481       -0.0793705151       -2.5164262669
 H       -11.6140731047        0.5109548347       -0.7458065767
 H       -10.3686297731        1.5869925098       -0.2807953148
 H        -8.8335872156        0.1823295311        3.0118702511
 H        -8.8009103269        1.5766671305        4.2008882534
 H        -8.0280613034        1.9837889856        1.1435348914
 H        -6.9354848677        1.3542037967        2.2263748910
 H        -7.7138793090        5.0248696214       -1.3166084549
 H        -6.8217443654        6.3547804836       -0.6296276641
 H        -9.7940007007        5.9751118410       -0.7445268304
 H        -9.0456465773        7.1844524829       -1.7141898222
 H       -10.3484817919        8.9663726294        3.7741322036
 H        -8.8910983321        8.5288084809        2.9401442827
 H        -8.5732490676        7.9003113827        5.2139061867
 H        -8.6314745171        6.4594932320        4.2780091157
 H       -13.4155450240        6.6736777541        5.4156171093
 H       -13.9875942502        8.2855980384        4.7144791762
 H       -14.2639425898        7.8998460870        6.2972217653
 H       -12.1234883454        5.9443098025        7.1684679739
 H       -12.5426032724        7.4594416033        8.2120519551
 H       -11.0864111866        6.4722211330        8.4650948926
 H        -9.7009160063        9.2331548155        6.2893164181
 H        -9.1162372769        8.2209784956        7.5192104724
 H       -10.5595607938        9.3520051311        7.8044804094
 H       -10.8972157631        9.6627672644       -0.0498629379
 H       -10.6079662100        9.8182789207        1.7305828953
 H       -12.2536497807        9.4061185676        1.2593965812
 H       -12.7601799936        6.9301170102        0.7616148811
 H       -11.6381580151        5.9006382191       -0.0451890066
 H       -11.9271052920        7.4357583827       -0.7894187856
 H        -7.0420189148        6.2801408311        2.5413116875
 H        -5.5758404333        6.4321397118        1.6780691426
 H        -5.6105904182        5.4005472835        3.0968970385
 H        -4.8034386173        3.2933114970        0.9146533787
 H        -5.2443080254        4.5656223982       -0.1112292454
 H        -6.1361397353        3.0796688742       -0.1957251844
 H       -13.3337374444        0.0877332970        1.3130735111
 H       -12.7182505302        1.5513685813        0.7619071925
 H       -13.1669186378        1.5149073879        2.4272203682
 H       -12.3360471649       -0.2860278104        4.0275188685
 H       -10.7833653285       -1.0729148292        3.5877943789
 H       -12.2397131980       -1.5385263747        2.7580281686
 H        -5.8334326476       -0.8168658454       -3.1644351444
 H        -7.2086059620       -1.5008405188       -2.4633408706
 H        -6.1869734546       -0.4006971110       -1.5192048688
 H        -6.6699217266        2.6298131239       -3.6125401838
 H        -5.3761308700        1.3452246047       -3.4315938362
 H        -6.1021817063        2.1982449519       -2.0288788835
 H        -7.7188023938        1.1982587882       -8.8729615863
 H        -8.2043637530        2.8348273928       -9.6547259390
 H        -8.4449685013        1.3098841793      -10.4121006421
 H       -10.6445649945        3.6613473462       -8.9582799338
 H       -11.7723851647        2.4229774220       -9.0497695789
 H       -10.8337858737        2.5907710188      -10.4549711587
 Na      -10.1266308297        4.4353209064        3.6231200990
