117

 C       -11.7672946509       -0.4192644735       -8.6870488045
 C       -10.3884959873        0.1385326738       -9.2467097759
 O        -9.8807325578       -0.4200517955      -10.1665355518
 C        -9.9075171386        1.5212837298       -8.8280781626
 C        -9.8761636215        1.7519620833       -7.2354602482
 O       -10.4829894684        2.6301961919       -6.6856206265
 C        -9.0315121089        0.7463988335       -6.3837251469
 C        -8.7614891012        1.4062951225       -5.0167355735
 C        -8.2670938619        0.3445918465       -4.0732142813
 O        -8.5935539343       -0.7807523555       -4.2855327442
 C        -7.3406332985        0.6155335542       -2.7743863584
 C        -8.3718023621        0.9755348400       -1.7556209929
 O        -8.3388289014        2.0088529757       -1.0828764093
 C        -9.6220816031        0.0337231066       -1.5734588793
 C       -10.6154543577        0.5151298972       -0.5810178825
 C       -10.4595274368       -0.2129208911        0.8042876663
 O        -9.7718784821       -1.2038821629        1.0447714339
 C       -11.3136679352        0.3454891666        2.0801890090
 C       -10.4051643537        1.4487276780        2.5995754092
 O       -10.8052813327        2.6055967331        2.4699562067
 C        -8.9602732546        1.3074606823        3.1254286417
 C        -7.9333112053        2.0292734890        2.1728779300
 C        -7.4721324491        3.4915465382        2.5463641917
 O        -7.6863238236        3.9790153195        3.6192053424
 C        -6.8020653860        4.4565808209        1.5237275776
 C        -7.9836465662        5.0278818650        0.8137595077
 O        -9.1283203725        5.0720773207        1.3385933831
 C        -7.8023491879        5.7121983076       -0.5728237004
 C        -8.9089625900        6.7679113152       -0.8376247225
 C        -9.2592079254        7.6499433675        0.3863310997
 O        -8.3131801496        8.2358384372        0.9402004906
 C       -10.6520895113        7.9266100035        0.9238442921
 C       -10.5760810025        7.3158921363        2.4161888377
 O       -11.1810799128        6.3005328711        2.6483654813
 C        -9.7120873398        8.1285341659        3.4575535955
 C        -9.1887467810        7.3398584776        4.6705319554
 C       -10.3632613214        6.7682930267        5.5450357669
 O       -10.5789362453        5.5639979554        5.5188685561
 C       -11.1019161640        7.6349539856        6.5435577963
 C       -12.2066863796        8.4603281654        5.8003319636
 O       -11.9876339547        9.6132529959        5.4977293171
 C       -13.5547910442        7.7805644191        5.4110709874
 C       -11.7291526541        6.8059873935        7.7783924572
 C       -10.0485545495        8.5702937733        7.1807599779
 C       -11.1305562987        9.4022895382        1.0175884917
 C       -11.7120418711        7.0866817937        0.1516823588
 C        -6.1682316450        5.6329712358        2.2847470531
 C        -5.7685179471        3.8244807611        0.6739207934
 C       -12.6555534331        0.8728059455        1.5236770647
 C       -11.7291425534       -0.6216765061        3.2363896884
 C        -6.5459393028       -0.6327469179       -2.5022683264
 C        -6.3000781703        1.7962411574       -2.9678942702
 C        -8.4324686118        1.9134597678       -9.3165319262
 C       -10.8949677935        2.5895207052       -9.4973210610
 H       -11.8253673278       -1.4960670935       -8.7163019714
 H       -12.3923867280        0.0502266855       -9.4152739172
 H       -11.9679437073       -0.0792827514       -7.6684479942
 H        -8.0529131208        0.4208729945       -6.7314028553
 H        -9.6256635017       -0.1681000747       -6.2998150933
 H        -9.7443411347        1.9241934714       -4.7028976953
 H        -7.9456116413        2.0895909197       -5.1736028075
 H        -9.3888092453       -1.0001975513       -1.4475620746
 H       -10.0924788462        0.2153177408       -2.5520689100
 H       -11.6870649313        0.2678908189       -0.8692443524
 H       -10.5633813668        1.5979645983       -0.4901369013
 H        -8.7403506471        0.2570242804        3.3606115087
 H        -9.0273616880        1.8776281033        3.9998556660
 H        -8.1599349435        2.0364260918        1.0921384349
 H        -7.0726607857        1.3796465753        2.1291174974
 H        -7.5755896592        4.9809811684       -1.3180226409
 H        -6.8791395717        6.2534227560       -0.4286078941
 H        -9.7658902006        6.2325020303       -1.1835614542
 H        -8.5750235510        7.3709795485       -1.6497566663
 H       -10.3436253779        9.0072163532        3.7113975327
 H        -8.8689922508        8.5305674384        2.8927274555
 H        -8.4720616328        7.9150652483        5.2790597767
 H        -8.6153305928        6.4606714181        4.2804259671
 H       -13.4408860271        6.7049247919        5.1268021609
 H       -14.1801095308        8.3728502162        4.8377944440
 H       -14.0981473891        7.6663599365        6.3331803390
 H       -12.4117794967        6.0387341220        7.4213237665
 H       -12.2235997773        7.5151371407        8.4333199535
 H       -10.9536103101        6.3106975524        8.3789113328
 H        -9.4490832753        9.2067157467        6.4683908755
 H        -9.2712122400        7.9838476466        7.6667521979
 H       -10.5648675407        9.2380166890        7.8621529890
 H       -11.3141720667        9.7476029042       -0.0302830739
 H       -10.3705576632       10.0640257769        1.4445583493
 H       -12.0179227131        9.4395467292        1.7411180547
 H       -12.6699363069        7.1699642043        0.6651759305
 H       -11.5559121495        6.0253222730        0.1630488588
 H       -11.7494710075        7.3414274404       -0.8951129350
 H        -6.8872602566        6.3113260917        2.7010576734
 H        -5.5953053588        6.2241343201        1.5981510414
 H        -5.4812147591        5.2282708138        2.9792331748
 H        -4.9149909354        3.3660450496        1.2058003161
 H        -5.2817905231        4.5408642477        0.0729544367
 H        -6.1222218876        3.0736549495       -0.0486897199
 H       -13.2091053464        0.0775037840        1.0201038181
 H       -12.4338559610        1.5241816975        0.6039254697
 H       -13.2346644279        1.4760687609        2.2404644759
 H       -12.3370690639       -0.0723128988        3.9017526330
 H       -10.8127927774       -0.9292069876        3.8184591157
 H       -12.2804876306       -1.4832233254        2.9571141161
 H        -5.8177620607       -0.7998523999       -3.2562562697
 H        -7.2714432111       -1.4682257860       -2.6104961613
 H        -6.0868427220       -0.5773891632       -1.5122325031
 H        -6.7930855426        2.5035076071       -3.6410270090
 H        -5.3593326170        1.3422426778       -3.3862308181
 H        -6.0782761886        2.3277066463       -2.0552969965
 H        -7.7304534378        1.5202200898       -8.5473538968
 H        -8.3978932975        2.9533940899       -9.6607400159
 H        -8.1386249668        1.3384812719      -10.1880614794
 H       -10.7885970269        3.4871986474       -8.9002312308
 H       -11.9749576093        2.3270471030       -9.4123528784
 H       -10.6814694842        2.7292138556      -10.5331535545
 Na      -10.1621509979        4.4186413321        3.5891625286
