117

 C       -11.7883106200       -0.4275008562       -8.7989419572
 C       -10.4078816643        0.0649266146       -9.2603076136
 O        -9.7603757115       -0.4753598428      -10.1356551119
 C       -10.0431737482        1.4883565610       -8.8486455357
 C       -10.0627162826        1.7741257264       -7.2038763633
 O       -10.5831098740        2.7400712808       -6.6693138653
 C        -9.3013984744        0.6189335271       -6.3957245678
 C        -8.6697205847        1.1546446929       -5.0455697826
 C        -8.1534586513        0.1238029509       -4.1022376233
 O        -8.3571482024       -1.0790525982       -4.3337577136
 C        -7.3730901763        0.5921512756       -2.7939153620
 C        -8.3501594359        0.9670523607       -1.7003337737
 O        -8.3115500836        2.0592908957       -1.1569908089
 C        -9.5093496169       -0.0446420341       -1.5759495509
 C       -10.5461813757        0.3345812271       -0.5083016263
 C       -10.3304977836       -0.2766512597        0.9083207329
 O        -9.5962936186       -1.1725395212        1.1512694739
 C       -11.2625685523        0.4805134090        2.0045123624
 C       -10.5750443506        1.6972363259        2.5604047928
 O       -11.0938642026        2.7863244890        2.6508605367
 C        -9.1373054980        1.4363386665        2.9796608633
 C        -8.0672543983        2.0779399353        2.0839409663
 C        -7.5833101737        3.4105068454        2.6922224103
 O        -7.8508754804        3.6572331896        3.8777126266
 C        -6.8980286368        4.3808717783        1.6713771284
 C        -8.1402428101        5.0604299623        0.7761057269
 O        -9.2410955686        5.0167664300        1.1963719773
 C        -7.8152087968        5.7937385085       -0.5449779791
 C        -8.8476237145        6.9111647398       -0.8942797559
 C        -9.0188332926        7.6870130763        0.3619574510
 O        -8.0724660480        8.1319302787        0.9870730081
 C       -10.5494186566        7.9947088258        0.8411997481
 C       -10.6304671885        7.4263345022        2.3672444162
 O       -11.1928442266        6.3615384361        2.6238865996
 C        -9.8018572419        8.2672687598        3.4692541198
 C        -9.3255028766        7.3414991891        4.5932876163
 C       -10.3845058001        6.8052540223        5.5944762174
 O       -10.6556754051        5.6172497140        5.5777577887
 C       -11.0761425629        7.7105094059        6.6707765622
 C       -12.1090389439        8.4953002011        5.6982297091
 O       -11.8669129059        9.6208055723        5.2807529611
 C       -13.4161286211        7.7678280803        5.3801427271
 C       -11.7210207582        6.7651293377        7.6260759467
 C       -10.1882396711        8.7726311880        7.3534194995
 C       -10.7368783221        9.5935506845        0.8835733836
 C       -11.7257997777        7.3528200155        0.0599867268
 C        -6.1327849489        5.4736989727        2.4432764212
 C        -6.0463603043        3.5776494739        0.7742196704
 C       -12.6357207337        0.9587085005        1.5061795351
 C       -11.3395442115       -0.5985820920        3.1409851797
 C        -6.5625378045       -0.6293304304       -2.2834896751
 C        -6.3508524124        1.7806071237       -3.0522173239
 C        -8.5872078236        1.8021884160       -9.2721295590
 C       -11.0344576726        2.5370199054       -9.4167513414
 H       -11.6103334778       -1.3217701994       -8.2015701980
 H       -12.4113967614       -0.5062063096       -9.6884558810
 H       -12.1822742413        0.2973954949       -8.1295443991
 H        -8.4629985672        0.3763882707       -7.0235510719
 H        -9.8941901091       -0.2796675029       -6.3508988406
 H        -9.4651780175        1.6225106941       -4.5847499050
 H        -7.8882089943        1.8722601020       -5.2684199379
 H        -9.0576135049       -0.9754313802       -1.1707794696
 H        -9.9352134638       -0.1933740775       -2.5564960040
 H       -11.4874709935       -0.0856692434       -0.8097965838
 H       -10.7505241446        1.4292109945       -0.3710680147
 H        -9.0672098254        0.3738643431        2.8631668902
 H        -9.1089743647        1.7673465743        4.0489585955
 H        -8.2826499046        2.1005395892        1.0251921991
 H        -7.2470552099        1.3305194206        2.0684842504
 H        -7.8437580148        4.9683705913       -1.3000024343
 H        -6.7593551146        6.1410295551       -0.5901843772
 H        -9.7423483530        6.4585475385       -1.3824477768
 H        -8.3129601829        7.5194599828       -1.6990776005
 H       -10.4386730174        9.0529721617        3.8812522648
 H        -8.9538804758        8.7395161021        2.9324556127
 H        -8.5796803945        7.8065259147        5.2780373071
 H        -8.8128240502        6.4611241441        4.1852473633
 H       -13.1834785695        6.9379367846        4.7333016027
 H       -14.2154540912        8.4720924416        4.9843230158
 H       -13.8361986990        7.1964752620        6.2232851730
 H       -12.5851635523        6.2880800969        7.1995270842
 H       -12.1314464158        7.3214539047        8.4929536702
 H       -11.0236974514        6.0504985387        7.9739488601
 H       -10.0518404188        9.5745513913        6.6892070247
 H        -9.1756053487        8.4771790126        7.6250271401
 H       -10.6927028323        9.1652538763        8.2324849995
 H       -11.2483468237        9.9463247536        0.0329716846
 H        -9.7871222114       10.0974214922        0.8118287206
 H       -11.1133004423        9.8620616293        1.8081568846
 H       -12.7113387228        7.6228620062        0.4166589863
 H       -11.7644976508        6.2522511092        0.1467978639
 H       -11.6895730949        7.5092990513       -1.0319097271
 H        -6.7450297681        5.9025371463        3.2536680258
 H        -5.9205116317        6.3304652067        1.7605663550
 H        -5.1322811470        5.1402138079        2.7846328285
 H        -5.2145373873        3.1164131241        1.2414976845
 H        -5.5868986756        4.1122836796       -0.0746431439
 H        -6.5892038610        2.8358416083        0.2384821300
 H       -13.0769043125        0.2563664212        0.7820993650
 H       -12.6515637523        1.8590150777        0.9576753425
 H       -13.2096221407        1.0339722611        2.4384638485
 H       -11.8762759474       -0.2441643686        4.0782671599
 H       -10.3908010925       -0.9837991480        3.3355244560
 H       -11.9614473629       -1.4182048415        2.7884803013
 H        -5.8617377743       -0.9719321364       -3.1022630791
 H        -7.3086681457       -1.4394233577       -2.1375073004
 H        -5.9664454336       -0.3951494178       -1.3797279865
 H        -6.9161790858        2.6956466597       -3.1149240606
 H        -5.7400780714        1.5533126412       -3.8879039334
 H        -5.6802196799        1.8332396631       -2.1781707823
 H        -7.9509187356        1.4410933965       -8.5097295620
 H        -8.5976229712        2.8612706926       -9.4242882602
 H        -8.1599782400        1.3841302192      -10.2022596826
 H       -10.8260475041        3.4742236481       -8.8610323013
 H       -12.0586860952        2.2965845891       -9.1604179088
 H       -10.9035892843        2.7037299442      -10.5281559342
 Na       -9.9885430441        4.5623601943        3.5145069427
