117

 C       -11.8073470550       -0.5391092987       -8.7760787954
 C       -10.4894374615        0.0969960242       -9.2257998966
 O        -9.6458095930       -0.5626294387       -9.8253062853
 C       -10.1209488311        1.5896032095       -8.8824024890
 C       -10.1404778783        1.6261751119       -7.1767550731
 O       -10.6852365426        2.5646779792       -6.6276238115
 C        -9.5054296995        0.4616304995       -6.2453770345
 C        -8.5400533893        0.9569323535       -5.1404590718
 C        -7.9190832949       -0.0622398412       -4.2087957097
 O        -8.1221597912       -1.2015602239       -4.4499100225
 C        -7.2746618763        0.5035152200       -2.8846499876
 C        -8.4399165626        0.8183412509       -1.8277608852
 O        -8.4099457994        1.8696653398       -1.2453282158
 C        -9.4831914368       -0.2490334940       -1.4026202423
 C       -10.7161323135        0.3276257407       -0.6417562930
 C       -10.4662166580       -0.1055103232        0.8626914809
 O        -9.4670284065       -0.7557813562        1.1426337608
 C       -11.4149666247        0.3591867631        2.0653112274
 C       -10.6131764416        1.6065873035        2.7778365145
 O       -11.0798321191        2.7150560626        2.8630492699
 C        -9.1706204156        1.3692836721        3.2208507856
 C        -8.2391136037        2.0378922456        2.2428263836
 C        -7.6389849801        3.3153885754        2.6917417703
 O        -7.8648582509        3.7582094209        3.7947896029
 C        -7.0088017058        4.2483073965        1.6623683024
 C        -8.1279556901        4.9686815613        0.8479592388
 O        -9.3203173084        5.0188659256        1.2047054080
 C        -7.6886530986        5.7300665028       -0.4474721096
 C        -8.8257219027        6.7587980714       -0.7603378758
 C        -8.9522623467        7.7253135526        0.4300428519
 O        -7.9864408185        8.1277727552        1.0431815008
 C       -10.4022163961        8.2009806250        0.8195989529
 C       -10.5172204046        7.6108082403        2.3455911597
 O       -11.1942697882        6.6500794440        2.5327308962
 C        -9.7313954152        8.3954387892        3.4802072746
 C        -9.2915096321        7.6086935413        4.7339458674
 C       -10.3450949111        6.8693725021        5.5284466189
 O       -10.6650586255        5.6940501116        5.3359854780
 C       -11.0869193020        7.7067586305        6.6321367892
 C       -12.2248276802        8.4854415905        5.6624870969
 O       -11.8545606837        9.5227346365        5.1967557074
 C       -13.4986090690        7.8205445761        5.2352863434
 C       -11.7835515723        6.8437129285        7.7291645555
 C       -10.1155062725        8.7581200721        7.2868769998
 C       -10.3039665937        9.7773561151        0.8287273747
 C       -11.5574610302        7.6300911850       -0.0753094091
 C        -6.2527051702        5.4106725006        2.4352893222
 C        -6.0203758053        3.5324291935        0.6300396435
 C       -12.8530418591        0.6221841753        1.5350963405
 C       -11.4531427356       -0.6447325452        3.1504818635
 C        -6.4308809166       -0.5806378792       -2.1796083694
 C        -6.4117482526        1.7106900268       -3.3590644393
 C        -8.6551686160        1.9155838261       -9.3953578340
 C       -11.1125649866        2.5993276295       -9.3726667543
 H       -11.5664854022       -1.1770927697       -7.9147942518
 H       -12.0801626173       -1.0354725291       -9.7295304452
 H       -12.6682907680        0.2005112156       -8.6140292527
 H        -9.0712332181       -0.3650521564       -6.8734527507
 H       -10.4356739915        0.0375537249       -5.7733130183
 H        -9.2248082924        1.7316460849       -4.5769054376
 H        -7.7142121074        1.5648147386       -5.6654667376
 H        -8.9386889214       -0.8927361724       -0.6920930429
 H        -9.8210557215       -0.8509121306       -2.2889538456
 H       -11.6707834467        0.1121967507       -1.1850793942
 H       -10.6239395977        1.3744481154       -0.5255480587
 H        -9.0627181025        0.2753805098        3.2300645022
 H        -9.1026788185        1.8746819409        4.1928858358
 H        -8.6388073010        2.1832540326        1.2073464822
 H        -7.4342149354        1.3412258964        1.9994518028
 H        -7.4200981386        5.1284166047       -1.3176273755
 H        -6.7812672849        6.2823002473       -0.1988835094
 H        -9.7208061351        6.1899878108       -0.9507606449
 H        -8.5862446386        7.2123380176       -1.6657325583
 H       -10.3869720500        9.2349614985        3.7644804568
 H        -8.8276776418        8.7889960373        3.0028355481
 H        -8.7234548269        8.2145684223        5.3893598203
 H        -8.6079372045        6.8150960810        4.4371014699
 H       -13.3629291349        6.8665436687        4.7183841208
 H       -13.9112628173        8.6035629663        4.6330170806
 H       -14.1453675049        7.5376804708        6.0710219325
 H       -12.0416278288        5.8297051198        7.3485971158
 H       -12.7582061754        7.2018662040        7.9925709225
 H       -11.1305673699        6.7743906045        8.6525987289
 H        -9.7418428424        9.6085689268        6.6747518069
 H        -9.2621512680        8.3022488260        7.7700673231
 H       -10.6213059741        9.1866883530        8.1543522533
 H       -10.0881343346       10.1955908173       -0.1488724120
 H        -9.4578451834       10.1490224702        1.4426871548
 H       -11.2226514762       10.1897814557        1.2859567308
 H       -12.5534638015        7.9536520868        0.3472625868
 H       -11.6419803422        6.5389482929        0.0083944990
 H       -11.6359367981        7.8422585589       -1.1522333828
 H        -6.7821179048        5.5942855350        3.3813479220
 H        -6.1314937316        6.3480849023        1.9102653045
 H        -5.2410130175        5.0738175238        2.6821508141
 H        -5.4558704492        2.7001243794        1.0939734281
 H        -5.2531615943        4.1761714372        0.2152592346
 H        -6.4545761426        3.1413495403       -0.3071826557
 H       -13.2328564708       -0.2959375022        1.1758113843
 H       -12.8229352635        1.2753839137        0.6741262437
 H       -13.4937083874        0.9085225832        2.3219847846
 H       -11.6985498132       -0.1768752281        4.0478189711
 H       -10.5173059486       -1.2712750496        3.2087030527
 H       -12.3069455031       -1.3515813486        3.0049871253
 H        -5.5348273602       -0.7529383776       -2.7172628366
 H        -6.9722409568       -1.4421832338       -1.9971574963
 H        -6.1140951666       -0.1634000226       -1.2452015270
 H        -6.9650751438        2.6501501914       -3.2871081851
 H        -6.1405231875        1.5055916571       -4.4052421505
 H        -5.4955115576        1.7545203573       -2.8156113636
 H        -7.9506866859        1.0654678232       -9.2754078033
 H        -8.3415817515        2.8881437243       -8.9438451542
 H        -8.6026943439        2.1824591294      -10.4239513078
 H       -10.6484689124        3.5704745379       -9.2729442293
 H       -11.9510943740        2.5869422645       -8.6426047598
 H       -11.3688030368        2.5138318402      -10.3900827597
 Na       -9.9672607209        4.8065107034        3.5066992262
