117

 C       -12.0052532439       -0.6124063452       -9.0108626186
 C       -10.5335583882       -0.0834258279       -9.0759730368
 O        -9.5422708668       -0.7481382777       -9.3675048884
 C       -10.3161798824        1.3801850121       -8.5591816408
 C       -10.2272163779        1.3339745802       -6.9819369415
 O       -10.7021172858        2.2459993481       -6.2978265544
 C        -9.3171118866        0.2885544879       -6.3504251058
 C        -8.4411878478        0.9666336932       -5.3145786513
 C        -7.9635318518       -0.0963146162       -4.3160363634
 O        -8.1677755956       -1.2984286879       -4.5141318771
 C        -7.4452003819        0.4106196956       -2.9297743431
 C        -8.5780727710        0.6927286482       -1.9259795382
 O        -8.6139585459        1.7778868403       -1.4065657013
 C        -9.6161778385       -0.3803205837       -1.6480597587
 C       -10.6129274229        0.1910794230       -0.5906741531
 C       -10.2296115936       -0.0508593840        0.8924464177
 O        -9.2453192503       -0.6877896419        1.1204817107
 C       -11.2170375720        0.3744233635        1.9732962820
 C       -10.6626699165        1.5248375976        2.8616496848
 O       -11.2552548461        2.5748688515        2.8755750199
 C        -9.1750982187        1.3553731599        3.5213441151
 C        -8.1196855539        1.9375254889        2.5192319178
 C        -7.7716847640        3.4126842487        2.7608735917
 O        -8.0770262950        4.0135519295        3.7653108164
 C        -6.9268498361        4.0971572959        1.5945834431
 C        -8.1039720935        4.9201084300        0.7796109712
 O        -9.2016334034        4.9649346330        1.3018271339
 C        -7.8053649638        5.7088918547       -0.4784817356
 C        -8.7634983757        6.8338788848       -0.7087946643
 C        -8.7442160395        7.8093763861        0.4530284047
 O        -7.7376547086        8.1370443898        0.9906087453
 C       -10.0165925610        8.5502293221        0.9358924968
 C       -10.2417623280        7.9362963096        2.4040189978
 O       -10.9544210342        6.9661289255        2.5084752335
 C        -9.4823725882        8.6480740341        3.5673412052
 C        -9.1558043697        7.6226960900        4.6368481542
 C       -10.3912566250        7.0273274981        5.3778058177
 O       -10.7569943753        5.8587682733        5.1493372398
 C       -11.1685944893        7.8739766104        6.3876345474
 C       -12.3416812226        8.5897171066        5.5696463708
 O       -12.1079725304        9.7148832741        5.2257411158
 C       -13.7125206648        7.9404847302        5.2680573621
 C       -11.7106057693        6.9731115672        7.4706410859
 C       -10.3541392632        8.9586343072        7.0326195799
 C        -9.7370504331       10.0623223610        0.8473099395
 C       -11.2445803346        8.2137185558        0.1259107294
 C        -6.0696200903        5.1173653624        2.3258490170
 C        -6.0935504247        3.1598808259        0.7367934668
 C       -12.5693938889        0.8019843414        1.3249291179
 C       -11.5028939213       -0.8727412657        2.9025396885
 C        -6.5596566193       -0.6870011783       -2.3152181498
 C        -6.5074716842        1.6249453844       -3.2398289724
 C        -8.9024997745        1.9048054508       -8.9672043932
 C       -11.2828339628        2.5258371137       -9.0680614089
 H       -12.4296399261       -0.0727802750       -8.1839335917
 H       -12.0858905720       -1.7230083165       -8.9388131684
 H       -12.4324756737       -0.4635103553      -10.0270008066
 H        -8.6911323966       -0.2207370059       -7.1195137075
 H        -9.8862124492       -0.4949931284       -5.8357122884
 H        -8.9227144239        1.8569038728       -4.7867434917
 H        -7.6179603248        1.5183639852       -5.9298343115
 H        -8.9870202652       -1.1627580956       -1.1698316717
 H       -10.0838259754       -0.7577495176       -2.6082797869
 H       -11.6633634920       -0.1290457970       -0.7622443644
 H       -10.5666345653        1.2214185870       -0.7677781717
 H        -8.8977174518        0.2977194407        3.7378700459
 H        -9.1163776522        1.9964024430        4.4867390621
 H        -8.4285296436        1.7720920824        1.4565368388
 H        -7.1664327343        1.4002637737        2.6589778953
 H        -7.8272621880        4.9640392072       -1.3298926394
 H        -6.7713578348        6.1222040080       -0.4814734534
 H        -9.7505525249        6.3263522148       -0.8135269024
 H        -8.6020814957        7.3958400791       -1.5864785960
 H       -10.2461615988        9.3490902797        3.9481403850
 H        -8.5593516300        9.1502587697        3.2940308097
 H        -8.5270660578        8.1210512535        5.3319679560
 H        -8.5580783056        6.7944478510        4.2761199414
 H       -13.7254319360        6.8973274881        5.3663729818
 H       -14.0427359767        8.1102258204        4.2051762684
 H       -14.4118994249        8.3103692334        6.0789294254
 H       -12.5013661758        6.2835338672        7.1255799455
 H       -12.1588815429        7.5506150804        8.2368083259
 H       -10.9548427380        6.3162742751        7.9786912165
 H       -10.0551395339        9.7148216578        6.3334638285
 H        -9.5300903195        8.5823848959        7.5685421452
 H       -10.9115425415        9.4773382386        7.7974869011
 H        -9.9967922114       10.3652432186       -0.1195689509
 H        -8.7127725506       10.3411168079        1.1235982852
 H       -10.4305728470       10.6088952732        1.3971819523
 H       -12.1613451121        8.7417570486        0.4026602343
 H       -11.4621139182        7.1462737533        0.0002744751
 H       -11.2519463092        8.5842189006       -0.8960279600
 H        -6.7137536167        5.8921171033        2.7821790847
 H        -5.2783319294        5.5185543358        1.6949486203
 H        -5.6154983312        4.6783163823        3.2543585625
 H        -5.1726535742        2.8008987797        1.1684951202
 H        -5.8453345362        3.6661119499       -0.2122975320
 H        -6.6652588951        2.2742806975        0.4346049542
 H       -12.9132434810        0.1006217843        0.6058927886
 H       -12.3932429913        1.7686015577        0.9358954041
 H       -13.3422253943        0.8453131171        2.0628756825
 H       -12.2960980813       -0.5642852088        3.5426491402
 H       -10.6630093505       -1.1006414810        3.5606247148
 H       -11.7228039392       -1.8447540780        2.3078879475
 H        -5.8000259256       -0.9650354327       -3.0845495538
 H        -7.1379393768       -1.5181114211       -2.0419808550
 H        -6.0300203191       -0.3624110602       -1.3985950801
 H        -6.9536979955        2.3511489937       -3.9291903940
 H        -5.7259971656        1.1801225223       -3.8160125226
 H        -6.1112499044        2.1102893188       -2.3792242474
 H        -8.1335145482        1.2537419775       -8.5327278700
 H        -8.6976006238        2.8938417291       -8.5217361291
 H        -8.7038374954        1.8506653517      -10.0120284615
 H       -11.0941675333        3.4816593371       -8.5923888143
 H       -12.3461466451        2.1869753830       -8.9399763304
 H       -10.9762681214        2.6948956622      -10.0780967235
 Na      -10.5229896511        4.6363716612        3.2953752768
