117

 C       -11.9689095457       -0.6281607473       -9.1774514350
 C       -10.5790613060       -0.0919645827       -9.0140690296
 O        -9.6545679377       -0.7899103686       -9.2982343784
 C       -10.3216546269        1.3719373445       -8.5252824817
 C       -10.2535214263        1.3996073397       -6.9346927752
 O       -10.8535670997        2.1419780272       -6.2021511027
 C        -9.3238759598        0.3197147245       -6.4068125459
 C        -8.4333647358        0.8935579450       -5.2636416626
 C        -8.0291158885       -0.1110076884       -4.1918446085
 O        -8.2653926259       -1.2973446940       -4.4442789587
 C        -7.3371860435        0.3296536987       -2.9539985737
 C        -8.5128206865        0.7097989103       -1.9554027495
 O        -8.6174781542        1.7965559668       -1.4165793230
 C        -9.5296173070       -0.3851408649       -1.6583790158
 C       -10.5759456736        0.1382308401       -0.7582871489
 C       -10.2168674638       -0.1595010415        0.7161903369
 O        -9.1815659865       -0.7156001178        1.0109345156
 C       -11.1816584807        0.3696712165        1.9303760523
 C       -10.6017042686        1.4904955017        2.8004420842
 O       -11.2265328388        2.5496908090        2.9112940345
 C        -9.3051486966        1.2426714159        3.5331794622
 C        -8.1932165282        1.9259051687        2.6795689554
 C        -7.8219311358        3.3736183429        2.7744386495
 O        -8.1875582895        4.1132810319        3.6959028292
 C        -6.9843482571        4.1076454048        1.6218907316
 C        -8.1238946197        4.9321174656        0.8947889962
 O        -9.2296443655        4.9197632726        1.3273709811
 C        -7.7551479370        5.6901199491       -0.3510295958
 C        -8.7063568171        6.8186025972       -0.7152696304
 C        -8.6646542542        7.8644731060        0.4565807036
 O        -7.5448381598        8.0417013637        0.9325043474
 C        -9.9696004356        8.6331805180        0.9691044935
 C       -10.2218507221        7.9998288384        2.4003582802
 O       -10.8774041927        6.9488564047        2.5067409712
 C        -9.4925603808        8.6307153502        3.5875148203
 C        -9.2109634217        7.6291573489        4.6850688526
 C       -10.4707894736        7.0555855249        5.3056133516
 O       -10.7789720690        5.8862337213        5.1225317767
 C       -11.2764089993        7.9336320078        6.3548868112
 C       -12.4452832618        8.6955125246        5.5908974822
 O       -12.1794240688        9.7848454854        5.0836899431
 C       -13.7098731336        7.9536484610        5.2582028948
 C       -11.6985649572        6.9440950503        7.5022241838
 C       -10.2556750492        9.0065995512        6.9107848383
 C        -9.5667384569       10.1208163661        0.9702356313
 C       -11.2171876425        8.3262663007        0.1321918056
 C        -5.9979166851        5.1845497816        2.1959222619
 C        -6.2674119285        3.1438438396        0.6942143979
 C       -12.5218322765        0.8048437242        1.2782303212
 C       -11.4015889686       -0.8635437709        2.8929153358
 C        -6.5599211147       -0.7503478744       -2.1315143941
 C        -6.4876785575        1.5935781948       -3.0777310983
 C        -8.9388840299        1.8803884957       -9.0297047535
 C       -11.3245502246        2.4423172584       -9.0121379233
 H       -12.7351735336        0.0218680592       -8.6800606452
 H       -11.9802969273       -1.6843651270       -8.7565316404
 H       -12.0681354026       -0.8958259714      -10.2324608778
 H        -8.7967130254       -0.2087259717       -7.2415190299
 H        -9.9485557352       -0.4772469832       -5.8793899382
 H        -8.9296671728        1.7758844955       -4.8172940788
 H        -7.5246861188        1.4413376825       -5.7769695896
 H        -9.0539433853       -1.1454667365       -1.0060650005
 H        -9.9132308453       -0.8299837145       -2.5996212937
 H       -11.4843447672       -0.4947760038       -0.8713062832
 H       -10.8259213811        1.1449456088       -0.9752911665
 H        -9.0130457458        0.2168599466        3.6734892947
 H        -9.3984900780        1.7859059459        4.4953469194
 H        -8.4295510589        1.7416293822        1.6170034919
 H        -7.2191523411        1.4080607068        2.8904175138
 H        -7.4801196073        5.0696678009       -1.2161334789
 H        -6.8524344068        6.2333194135       -0.1194504484
 H        -9.6827054844        6.3934707590       -0.8368599966
 H        -8.4151163768        7.2534970220       -1.6361467034
 H       -10.1496107504        9.4668401563        3.8479463560
 H        -8.4963538830        8.9449562808        3.2733300391
 H        -8.6304063578        8.0950605298        5.4429380566
 H        -8.5887056153        6.8322790209        4.3033727951
 H       -13.6332187961        6.8876987952        5.2404330306
 H       -13.9492463007        8.1744950724        4.2024541950
 H       -14.4872937090        8.2547438210        5.9501068175
 H       -12.6707894741        6.4140196621        7.4089816065
 H       -11.7671542552        7.5120230820        8.4647321459
 H       -10.9946028131        6.1267045963        7.7015341891
 H        -9.9369917109        9.6243801702        6.1136007199
 H        -9.3983100672        8.5752160072        7.4278555861
 H       -10.6639506740        9.7238528715        7.6309178753
 H       -10.0158789709       10.5930393806        0.1016206589
 H        -8.4839628201       10.1797258298        1.0284306397
 H        -9.9850220600       10.7394281591        1.7297567748
 H       -12.0479916449        8.9640047228        0.3925464123
 H       -11.5662253480        7.2746413311        0.2088800873
 H       -11.2698879673        8.5110887474       -0.9491613294
 H        -6.4865033253        6.0198174113        2.6980030487
 H        -5.4114370122        5.4982876728        1.3215225969
 H        -5.3150004604        4.7997355919        2.9771331913
 H        -5.4718649482        2.6204379193        1.2075423846
 H        -5.7637150992        3.7389773673       -0.1464543129
 H        -6.8913089596        2.3626549539        0.2348728644
 H       -12.8620785182       -0.0204649714        0.6893928822
 H       -12.3435377003        1.6755352258        0.7634501993
 H       -13.2858988966        1.0417642509        1.9823935028
 H       -12.2357142238       -0.6584888312        3.6385001009
 H       -10.5530076782       -0.9945179224        3.5110024080
 H       -11.5037511623       -1.7902962338        2.3236600977
 H        -5.7883484990       -1.2918621483       -2.6215165883
 H        -7.3146650341       -1.4307698337       -1.7765801013
 H        -6.1915720015       -0.3149920465       -1.2609257274
 H        -7.1131884308        2.4652378713       -3.2656489814
 H        -5.8109089718        1.5584872788       -3.8754390616
 H        -5.9594973735        1.7541400207       -2.1324800178
 H        -8.0845600319        1.3674980224       -8.6123913736
 H        -8.6968299354        2.9267525758       -8.8606454679
 H        -8.8997356179        1.5367789211      -10.0899119048
 H       -11.2909902182        3.2877228291       -8.3347413763
 H       -12.2583824174        1.9556230583       -8.9025652570
 H       -11.1023922245        2.8277997602      -10.0236461691
 Na      -10.5047720200        4.7835799980        3.2486730063
