117

 C       -12.0398675444       -0.6369514495       -9.5193031284
 C       -10.6113503180       -0.1614265046       -9.0432433435
 O        -9.7220161754       -0.9570512687       -9.0049315322
 C       -10.3934574742        1.3736443916       -8.4359654414
 C       -10.3248550036        1.1986531569       -6.9010108449
 O       -11.0650085848        1.8229913485       -6.1728759550
 C        -9.2371455295        0.2677907478       -6.3029507038
 C        -8.4575367338        0.8914047636       -5.1135345829
 C        -7.9471901466       -0.1645695761       -4.0404300637
 O        -8.2625353347       -1.3706955913       -4.1337538902
 C        -7.1974067818        0.2945394465       -2.6780570543
 C        -8.5226320953        0.6179353929       -1.7824939986
 O        -8.6096152271        1.7584676742       -1.3947665173
 C        -9.6659298439       -0.4310823231       -1.8154111394
 C       -10.6577990401       -0.1043886466       -0.6713465637
 C       -10.2278203648       -0.0786069002        0.7645400502
 O        -9.1220723289       -0.4090628170        1.0826183836
 C       -11.2450098623        0.2830749274        1.8788263360
 C       -10.5923554759        1.5217380523        2.6118914392
 O       -10.9895650015        2.6741618113        2.5461272404
 C        -9.3330827099        1.2471523381        3.5250186724
 C        -8.0124697226        1.7178153103        2.9070750072
 C        -7.8939308389        3.2653799075        2.8278572452
 O        -8.2496622406        4.0241702776        3.7035727268
 C        -7.1524333794        4.0188004193        1.5831034381
 C        -8.2266647643        4.9940528453        0.7274623497
 O        -9.3614529586        4.9172507939        1.1194996815
 C        -7.8402790698        5.7336782992       -0.5326115173
 C        -8.6545457190        7.0908392972       -0.7425451210
 C        -8.4270065050        8.0355974054        0.4282425236
 O        -7.3405778499        8.0730876460        0.9659996118
 C        -9.7241576287        8.8323850404        0.9782441298
 C       -10.1114602198        8.0652300207        2.3200757436
 O       -10.8425185068        7.0791607729        2.2470005713
 C        -9.3036218160        8.4124688478        3.5623705237
 C        -9.2469462456        7.4058811807        4.6885037906
 C       -10.5344301009        7.0899947962        5.4743684724
 O       -11.1506786287        6.0534848241        5.1148206110
 C       -11.2746493340        8.0733879846        6.4122862648
 C       -12.3857545024        8.7684972059        5.4867309066
 O       -12.1745581555        9.7867806978        4.8597915133
 C       -13.6240089781        7.9345400532        5.2501173456
 C       -11.9150192910        7.3639596154        7.6623524166
 C       -10.3742718706        9.2626049528        6.8908169640
 C        -9.2736426381       10.2745687977        1.0928228194
 C       -10.8541569795        8.8121714063       -0.0896511224
 C        -6.0884515092        4.8946754071        2.3238502314
 C        -6.4836050211        3.0815912341        0.5948636914
 C       -12.6177904898        0.7738970497        1.4019534465
 C       -11.3446915816       -0.9748497120        2.8363740104
 C        -6.3663954035       -0.9380665535       -2.1973386090
 C        -6.2035878086        1.4872881015       -2.9769283222
 C        -9.1610908058        1.9384681989       -9.1811144313
 C       -11.5632108729        2.3541451878       -8.7978949171
 H       -12.5347578612        0.1622829028      -10.0210185599
 H       -12.6963414515       -0.8458594320       -8.6806941537
 H       -11.9659581656       -1.4963742586      -10.1598564400
 H        -8.6501772923       -0.1871298627       -7.0797834975
 H        -9.6971180021       -0.5282313620       -5.8001001556
 H        -9.0932875829        1.5895935675       -4.6037780993
 H        -7.6300733252        1.5756135001       -5.5130889826
 H        -9.3117608993       -1.4504298291       -1.6221239659
 H       -10.1441117262       -0.3925575444       -2.8334227682
 H       -11.5201335660       -0.8487934986       -0.7085557656
 H       -11.1186853231        0.8303504480       -0.8250221415
 H        -9.2250685812        0.1849361386        3.7892260957
 H        -9.5155844343        1.8567461545        4.4958990058
 H        -7.8999990712        1.2907691712        1.9043913751
 H        -7.2034506307        1.4297495553        3.5622675424
 H        -8.0951314921        5.1229445010       -1.4487282994
 H        -6.7428441696        5.9414146201       -0.6087974201
 H        -9.7621892816        6.8471683519       -0.9021221487
 H        -8.2489550623        7.5644958679       -1.6373687979
 H        -9.6675475783        9.3546455022        4.0238983021
 H        -8.2842069837        8.4857183848        3.1876779198
 H        -8.5874015956        7.7808908415        5.4727480956
 H        -8.8368187490        6.4126003772        4.3686801101
 H       -13.2694445852        7.0303278625        4.8784186363
 H       -14.3276270230        8.2350070343        4.4215937960
 H       -14.2002695547        7.8259305309        6.2090239435
 H       -12.6004412865        6.5699819880        7.4329564203
 H       -12.3528306298        8.0520610268        8.3206610139
 H       -11.1828129544        6.8475429301        8.2624857703
 H       -10.0733572636        9.9136953886        6.0734261343
 H        -9.4520691794        8.8992716854        7.3363966271
 H       -10.8799081731        9.9506619438        7.6059190604
 H        -8.8609787002       10.6182216177        0.1553660938
 H        -8.5281395221       10.3290624146        1.9283607073
 H       -10.0504338883       10.9735046197        1.2785164140
 H       -11.7575244900        9.3765507139        0.0187365863
 H       -11.2829813428        7.8189143092       -0.2219788585
 H       -10.4977666789        8.9509625974       -1.0902419873
 H        -6.4827720695        5.4037233799        3.1996451892
 H        -5.6749053269        5.6380027579        1.6747346725
 H        -5.2812718169        4.2148552757        2.6382626314
 H        -5.7201272277        2.4841150303        1.0267130517
 H        -6.0065256431        3.7367575226       -0.1756638557
 H        -7.1790166771        2.3983399127        0.1463779126
 H       -13.0627757839       -0.1182500550        0.8519240769
 H       -12.5661188875        1.6901062438        0.8403444946
 H       -13.2735600652        1.0654898583        2.2638022624
 H       -11.6752175952       -0.6742930217        3.8389209434
 H       -10.4449945157       -1.4937923648        2.9531790964
 H       -12.1054588162       -1.6722820096        2.3820318127
 H        -5.2783550652       -0.9646584183       -2.5655402124
 H        -6.8136030801       -1.8444441188       -2.6254808271
 H        -6.3658975283       -1.0619435577       -1.0749378076
 H        -6.6626891899        2.4864044562       -3.2328070895
 H        -5.5609947203        1.2300104169       -3.8139116867
 H        -5.5392343718        1.6934703222       -2.1152112488
 H        -8.2665800839        1.3755686331       -9.1499499418
 H        -8.7907099039        2.8103434102       -8.6419275004
 H        -9.4087103780        2.1064312831      -10.2213472734
 H       -11.1979767535        3.3890317953       -8.8296853349
 H       -12.4428713831        2.2701764948       -8.1222525383
 H       -11.8764500105        1.9586283902       -9.7861721333
 Na      -10.4666961648        4.7910505246        3.2557183531
