117

 C       -11.9831483622       -0.6114276967       -9.5753126380
 C       -10.6667826894       -0.1677335461       -8.9857229378
 O        -9.7851782955       -0.9790334020       -8.9287690656
 C       -10.4381203465        1.3017147865       -8.4866644527
 C       -10.2324270453        1.1911323840       -6.8030381711
 O       -11.0109791864        1.6890577746       -6.0428510530
 C        -9.1834836634        0.2541725397       -6.2916050252
 C        -8.5068340262        0.8300582483       -5.0687489153
 C        -7.9407559481       -0.1988856186       -4.1835604507
 O        -8.2773119417       -1.3243785438       -4.3253006776
 C        -7.2520363019        0.2471694372       -2.8319664473
 C        -8.4662017197        0.6223684669       -1.8742514986
 O        -8.5846386595        1.6898349469       -1.2808053101
 C        -9.5521427497       -0.4344937907       -1.6463577754
 C       -10.6802310484       -0.0090954730       -0.7020611292
 C       -10.2053428589       -0.1242224255        0.7432198137
 O        -9.0128083809       -0.2683759642        1.0409795645
 C       -11.2593546473        0.3091952139        1.9353093914
 C       -10.5655582850        1.4853749861        2.6996902490
 O       -10.8811944283        2.6298090996        2.3445181965
 C        -9.3852281324        1.2107066850        3.5997924661
 C        -8.1193984348        1.7432218435        2.9020761352
 C        -7.9186852968        3.2059627763        2.7499063620
 O        -8.3004144757        3.9815529458        3.6478568776
 C        -7.2070496765        3.9581785490        1.5410531539
 C        -8.2927820059        4.9381435194        0.8038750063
 O        -9.4554081741        5.0020332622        1.1076136019
 C        -7.8377552355        5.6956271403       -0.4672777751
 C        -8.5628024531        7.0606678156       -0.7451028787
 C        -8.4335404991        8.0054313212        0.4722408793
 O        -7.3371932562        8.1421209439        1.0251975821
 C        -9.6002973515        8.8441024263        0.9508659592
 C       -10.0206419708        8.0049616873        2.2356717976
 O       -10.8480035287        7.0921019568        2.1382159860
 C        -9.2434677661        8.3857536470        3.5346172299
 C        -9.2840167657        7.4771928719        4.8214255733
 C       -10.6735313788        7.1254835720        5.4164104465
 O       -11.2891048967        6.0946472791        5.1694183005
 C       -11.2917797722        8.1175566263        6.3836961533
 C       -12.3598640793        8.7395047345        5.3926840442
 O       -12.1213480086        9.7766514865        4.8169776012
 C       -13.7018460370        7.9533706820        5.1677500096
 C       -11.8356048595        7.4296459675        7.6552295250
 C       -10.3055659294        9.2613280965        6.8136112961
 C        -9.1294641874       10.3362958211        1.2003241567
 C       -10.7637141260        8.9121326079       -0.0369119764
 C        -6.1372813460        4.9110848571        2.2709859107
 C        -6.4087652183        3.0615558068        0.4797431351
 C       -12.6566393723        0.7693376409        1.4232338101
 C       -11.3413594390       -0.8436748512        2.9054173705
 C        -6.4859105828       -0.9483323698       -2.1158947524
 C        -6.3755861570        1.4582555085       -2.9301337962
 C        -9.1424068070        1.8926702151       -9.0912685347
 C       -11.6685383635        2.2322304368       -8.7330532805
 H       -12.2347918009        0.0107470651      -10.4912291042
 H       -12.8136488573       -0.3856155755       -8.8800210619
 H       -11.9453564673       -1.6487616558       -9.8875206197
 H        -8.4411565221        0.0670296493       -7.0641755264
 H        -9.6211031348       -0.7436141123       -6.0386577287
 H        -9.1704788020        1.5247883134       -4.4618408894
 H        -7.7446311608        1.5882817154       -5.5115942632
 H        -9.2447246523       -1.4816127964       -1.3922998218
 H       -10.0447937108       -0.4830798043       -2.6679033844
 H       -11.5000222803       -0.7151478754       -0.8942256510
 H       -11.0703866412        0.9734519594       -0.8727562452
 H        -9.2182571160        0.1100191176        3.6952589536
 H        -9.4450672728        1.6516742688        4.6443016909
 H        -8.0411480980        1.3051761170        1.9011385277
 H        -7.2814527879        1.4274707133        3.5638703442
 H        -7.9668860416        5.0611283504       -1.3801412445
 H        -6.7569805978        5.9226267818       -0.4106609153
 H        -9.5887528667        6.8629226005       -0.9519854964
 H        -8.0931101998        7.5476189446       -1.5993946587
 H        -9.5758631282        9.3739146716        3.8623585089
 H        -8.2008658322        8.3842781084        3.1778913060
 H        -8.7098172706        7.8753593726        5.6211431152
 H        -8.8920943587        6.5003718826        4.6008133904
 H       -13.5299543272        6.9378564443        4.6739137619
 H       -14.4360351092        8.3838040167        4.4981404890
 H       -14.1618753765        7.8898650927        6.1424996183
 H       -12.0476068007        6.3816037917        7.5806727362
 H       -12.7414347868        7.9949674743        7.9961458347
 H       -11.1896719437        7.5141194152        8.4909681316
 H        -9.8929876368        9.7667575060        5.9758724928
 H        -9.4502131998        8.8092313150        7.3186522393
 H       -10.7521269726       10.0321972341        7.4216033728
 H        -8.4929214232       10.6178434782        0.3501218007
 H        -8.5760618520       10.4288758094        2.0809751351
 H        -9.9376464154       11.0515771510        1.2301247898
 H       -11.6199066043        9.4408953377        0.3555528407
 H       -11.2987428129        7.9853675989       -0.2910406687
 H       -10.5179929734        9.2378533096       -1.0553790965
 H        -6.5843477025        5.5158017695        3.0777805258
 H        -5.6974258927        5.6590735403        1.5701631177
 H        -5.3333182018        4.2606550937        2.6628705309
 H        -5.4613531273        2.7679632487        0.9141314096
 H        -6.1970009167        3.6681080700       -0.4206047050
 H        -6.9281290739        2.1566516080        0.2443610490
 H       -12.8581519603        0.0634269876        0.6343394377
 H       -12.6582915520        1.7928598965        1.0867590317
 H       -13.4352178138        0.7211801109        2.1663096309
 H       -11.6917676841       -0.4983171365        3.9542932869
 H       -10.3674027808       -1.3204915272        3.0564062551
 H       -12.0199062863       -1.5846558592        2.5504410788
 H        -5.4453609763       -1.0419002960       -2.4087966381
 H        -6.9478674352       -1.9641132938       -2.3914382406
 H        -6.5270294850       -0.8092606957       -1.0386788563
 H        -6.8134548201        2.3441941920       -3.3693912913
 H        -5.4684887622        1.2627889631       -3.4675121095
 H        -6.0581081914        1.7443656630       -1.9145485754
 H        -8.3225017447        1.2273563583       -9.1956014919
 H        -8.6941999496        2.5661508181       -8.4038383015
 H        -9.3176221443        2.3686103798      -10.0788218247
 H       -11.2378934141        3.2505140839       -8.6885638736
 H       -12.3551096444        2.1662265943       -7.9069520258
 H       -12.2540125614        1.9529540239       -9.6548314500
 Na      -10.4773272428        4.8167776361        3.2628757195
