117

 C       -12.0171097651       -0.6830307083       -9.8056029069
 C       -10.7666300132       -0.2998561629       -9.0189701169
 O        -9.9681114105       -1.1340034786       -8.7565541644
 C       -10.5729357451        1.2222639813       -8.3385387029
 C       -10.1925705263        1.0734837828       -6.7607273868
 O       -11.0040301735        1.4098173958       -5.9086540119
 C        -8.9146728136        0.3049147527       -6.4116658943
 C        -8.3821766229        0.8270833272       -5.0916835895
 C        -7.9269488708       -0.3304430606       -4.1897056869
 O        -7.9075947519       -1.5030751071       -4.4718395378
 C        -7.3786890036        0.1468076912       -2.7098280608
 C        -8.6347615378        0.5127608475       -1.7331258202
 O        -8.7014780025        1.6071098960       -1.2154470400
 C        -9.7778253023       -0.5422602867       -1.6711614737
 C       -10.7482375234       -0.0154838625       -0.6564711699
 C       -10.2242183049       -0.0348229239        0.7774415570
 O        -9.1453729397       -0.4684918057        1.1797688994
 C       -11.2612169347        0.4376494731        2.0085365891
 C       -10.5704686433        1.6073733646        2.6265953142
 O       -10.9955574946        2.7606387093        2.3968455165
 C        -9.3320392216        1.3502556617        3.5298210594
 C        -8.0460271239        1.8489709278        2.9810130739
 C        -7.9687250265        3.3627525840        2.7525503083
 O        -8.4721322711        4.1084840345        3.5847735848
 C        -7.1867083437        4.1141664270        1.5605089945
 C        -8.1906300840        4.9485327233        0.6710637916
 O        -9.3054727968        5.0682204550        1.1057181757
 C        -7.7614332605        5.7269399188       -0.5495502494
 C        -8.5773149268        7.0767103145       -0.6824218818
 C        -8.2255623527        7.9755131105        0.4821954352
 O        -7.1375159350        7.9318819710        1.0575984291
 C        -9.4318986346        8.8982308008        1.1497463349
 C        -9.8366111761        8.0666136129        2.3681476448
 O       -10.6821785953        7.1671130903        2.2487996961
 C        -9.2125583694        8.3733225214        3.6684261573
 C        -9.2862186447        7.2389947476        4.7218173119
 C       -10.6721814956        7.0907001421        5.2567189574
 O       -11.3723507396        6.0507118880        5.0771419382
 C       -11.3133370095        8.2267076419        6.1083731472
 C       -12.4206587949        8.8813174583        5.1720188990
 O       -12.1053634735        9.8781645895        4.5706636274
 C       -13.8000491623        8.2803638578        5.1713413250
 C       -11.8941464009        7.5350889707        7.3075858333
 C       -10.3304788655        9.3132285825        6.6188247640
 C        -8.8427139046       10.2684121980        1.4627472342
 C       -10.5068260097        8.9958676421        0.1362162074
 C        -6.0907292701        5.1428506418        2.2621188037
 C        -6.4349045780        3.0027892979        0.7189774048
 C       -12.6900393884        0.8230317583        1.5317740958
 C       -11.2141841741       -0.8869714698        2.9315771182
 C        -6.5478362007       -1.1136070205       -2.1961803128
 C        -6.4386595435        1.3178235716       -2.9910321157
 C        -9.4347659281        1.8982958834       -9.1428757009
 C       -11.8213155998        2.1879311693       -8.4481651534
 H       -11.6178044073       -1.1726501329      -10.6793318592
 H       -12.7052238811        0.1042801201      -10.0687235206
 H       -12.4188596096       -1.5377727137       -9.3675011561
 H        -8.1931097845        0.2779381482       -7.2062397068
 H        -9.2366201028       -0.6951170771       -6.3578338582
 H        -9.1269527996        1.3893886935       -4.6991645390
 H        -7.5613263451        1.5481412624       -5.2863393196
 H        -9.3511110841       -1.5084051529       -1.5049904246
 H       -10.3143869634       -0.6512588803       -2.6193195442
 H       -11.5990374788       -0.8000130145       -0.6286285194
 H       -11.1711893575        0.8767022837       -1.0290675838
 H        -9.0928767836        0.3186756275        3.6937784216
 H        -9.4952041607        1.7149215743        4.5675872736
 H        -7.9028766912        1.2626384035        2.0837926658
 H        -7.3011136754        1.6165584738        3.7196840171
 H        -7.9100574536        5.0395759408       -1.3965787265
 H        -6.6960746162        5.9935270342       -0.5253725313
 H        -9.6949088845        6.8573323819       -0.6486885133
 H        -8.3101180992        7.7355511478       -1.5317142417
 H        -9.7855032673        9.2704685816        4.0200670195
 H        -8.1531625997        8.6444939660        3.5436788199
 H        -8.6350782396        7.5207837344        5.5784876331
 H        -8.9657624501        6.2172993404        4.3210183530
 H       -13.7988152929        7.2149212098        4.9536575527
 H       -14.2984278718        8.7332880039        4.3176750293
 H       -14.4091647474        8.5583510198        6.0249687852
 H       -11.2455834277        6.7453172971        7.6846510373
 H       -12.9031738816        7.1036276248        7.1973810307
 H       -11.9447533139        8.2426544469        8.1264679709
 H       -10.0338823548       10.0260961420        5.8593780806
 H        -9.3887884463        8.9116201533        7.0275547324
 H       -10.9082381112        9.8552858557        7.4123752492
 H        -9.2015405352       10.9688934403        0.6682358354
 H        -7.7232032249       10.3620670800        1.4368442874
 H        -9.1976562405       10.5783809702        2.4567400544
 H       -11.3043529778        9.6376525387        0.3803721164
 H       -11.0936820019        8.1333073479       -0.1165996709
 H       -10.1107726411        9.2782398028       -0.8097264522
 H        -6.5076801724        6.1093614457        2.3587521970
 H        -5.1986860735        5.2519025422        1.6939818443
 H        -5.7888466725        4.6922064141        3.1912416500
 H        -6.1261491095        2.2513029803        1.4169632089
 H        -5.5075859414        3.4416065659        0.2077899841
 H        -7.1072848867        2.5272716498        0.0038260893
 H       -13.2725351553       -0.1111664717        1.2356523966
 H       -12.6329760095        1.4261246257        0.6256412457
 H       -13.1789524201        1.3650537147        2.3850924043
 H       -11.8627024964       -0.7876038190        3.8284498546
 H       -10.2580129998       -1.1591025979        3.2021301487
 H       -11.6692180488       -1.7150411357        2.4182664011
 H        -5.8902411218       -1.4944246568       -2.9659809081
 H        -7.2024722377       -2.0072624857       -2.0180918983
 H        -5.9308781530       -0.9709579113       -1.3394414829
 H        -6.8187607477        2.3585857550       -3.1058280918
 H        -5.8055224599        1.0899252218       -3.8171477390
 H        -5.6617598140        1.4032493282       -2.2046309559
 H        -8.4897326915        1.3853970321       -9.2393901540
 H        -9.1159545594        2.8128170982       -8.5716309789
 H        -9.7219280716        2.4048055710      -10.1007287708
 H       -11.8608539730        2.8363220572       -7.5978104717
 H       -12.7267985571        1.6594684960       -8.5606905283
 H       -11.7844302165        2.6468123419       -9.4305716142
 Na      -10.6762640374        4.9743131691        3.1332169949
