117

 C       -11.7953391063       -0.6495117000      -10.1002695502
 C       -10.9541909615       -0.4832718305       -8.8464652844
 O       -10.2363674838       -1.3438269872       -8.4648315422
 C       -10.8669598544        0.9100028418       -8.1503297890
 C       -10.3070892392        0.9442581445       -6.7258939775
 O       -11.0534290027        1.2403912733       -5.8033932527
 C        -8.9551375654        0.3483364864       -6.4225575723
 C        -8.4916934907        0.7475980215       -4.9791731983
 C        -7.8593045584       -0.3828720874       -4.1657605535
 O        -7.8316957419       -1.4736077726       -4.6950064262
 C        -7.3291143318       -0.1876193938       -2.7009087231
 C        -8.5613813984        0.3545440697       -1.8070362481
 O        -8.6165211357        1.5201080331       -1.5296398942
 C        -9.6977622378       -0.5890830124       -1.5072988743
 C       -10.7529371562       -0.0473472512       -0.5066651233
 C       -10.3732286103       -0.0078081418        0.9491034474
 O        -9.2692085147       -0.3268278638        1.3911462786
 C       -11.4453029787        0.3889802783        2.1145188579
 C       -10.7955538384        1.7526304257        2.7718295853
 O       -11.3438301611        2.8087279527        2.5258109193
 C        -9.4584917666        1.6971701303        3.4230311481
 C        -8.2946259828        2.0696715181        2.3986726815
 C        -7.9289215582        3.4892757419        2.6077134794
 O        -8.2371689500        4.0723663253        3.6195090109
 C        -7.0576797476        4.2648952374        1.6080129190
 C        -8.0494313492        5.0145500927        0.7310287451
 O        -9.2687249274        5.0498885929        0.9346656818
 C        -7.5914952300        5.6995469485       -0.5499266843
 C        -8.2320797282        7.0638631317       -0.6314115202
 C        -7.9212014116        7.9861870663        0.5518803785
 O        -6.8192601341        7.9946136312        1.0636388577
 C        -9.1387374035        8.9650399583        1.1791761795
 C        -9.6366993108        8.1439083735        2.3765444587
 O       -10.4479107637        7.1952415033        2.2281523265
 C        -8.9961539511        8.4331663185        3.7407041232
 C        -9.2766925324        7.3785670516        4.7394880784
 C       -10.7468535653        7.1570415990        5.1185190869
 O       -11.4072333019        6.2410002488        4.6806485972
 C       -11.4719065024        8.2537600893        5.9836329522
 C       -12.3484661687        9.0945986203        4.9340445163
 O       -11.6273489593        9.7859926975        4.2097787155
 C       -13.7765178821        8.8741204842        4.6619848245
 C       -12.4181431052        7.4965048255        6.9646818458
 C       -10.5839063136        9.2763598676        6.8291782868
 C        -8.5464940043       10.3603324023        1.5575746205
 C       -10.2283960649        9.2154922686        0.1250689742
 C        -6.1986575536        5.2625113575        2.5163789481
 C        -6.1961864321        3.2131921172        0.7827579713
 C       -12.8078565162        0.7127240725        1.5214378034
 C       -11.5890119015       -0.8431779457        3.0950263807
 C        -6.8729202599       -1.4386519328       -2.0476051818
 C        -6.1759900656        0.9124355461       -2.5940340366
 C        -9.7979846618        1.7223763753       -8.9946622694
 C       -12.2870177287        1.6095419077       -8.1017138311
 H       -11.8356877322       -1.6815283583      -10.1845378056
 H       -11.3832914832       -0.1138274926      -10.9010039742
 H       -12.8029642187       -0.3415307688       -9.9509437654
 H        -8.1669575432        0.6858529022       -7.0403975517
 H        -8.9764075132       -0.6968102417       -6.5653438481
 H        -9.4164467167        1.1262029011       -4.4520185763
 H        -7.8324703768        1.5552348246       -5.0733178781
 H        -9.1049358627       -1.4011629093       -1.0036170520
 H       -10.0378787424       -0.9951942880       -2.4770450999
 H       -11.5909403725       -0.6618928155       -0.5195514823
 H       -11.1602189946        0.9583716807       -0.8229254834
 H        -9.2038320285        0.6413891093        3.7260584133
 H        -9.3105910342        2.2774550393        4.3894925162
 H        -8.4997375641        1.8198546486        1.3628187226
 H        -7.3708516159        1.4990741677        2.5966911119
 H        -8.0694104886        5.0992112537       -1.3896054920
 H        -6.4737074201        5.7138888645       -0.7374843250
 H        -9.3203101401        6.9760485250       -0.6837095915
 H        -7.8985228841        7.6305410869       -1.5042370191
 H        -9.4901059484        9.3728787384        4.0663346596
 H        -7.9203281072        8.7168651603        3.6492840648
 H        -8.8004005288        7.5855118328        5.7099514848
 H        -8.9031095778        6.4121607970        4.4240265577
 H       -13.8428572950        8.1171468692        3.9720652185
 H       -14.1584560623        9.8791161734        4.3202359717
 H       -14.3767491030        8.5404570276        5.5407221116
 H       -13.1586186016        8.1878923764        7.3736812380
 H       -11.8460069886        7.0991770827        7.7237652841
 H       -12.9349366513        6.7821691250        6.3317158844
 H       -10.0813528067       10.0485433825        6.1873490925
 H        -9.9072798509        8.7457485814        7.5063570256
 H       -11.2248895810        9.8291196208        7.5342457782
 H        -7.5623892505       10.3937210766        1.1160657483
 H        -8.4062272551       10.4171192244        2.6826404385
 H        -9.2311821635       11.1536189290        1.2257508794
 H       -10.9286193801        9.9707341927        0.4297940063
 H       -10.7756935389        8.3429498590       -0.1425594403
 H        -9.9439211578        9.6985837157       -0.7754787328
 H        -6.7796985360        5.5963167572        3.3575069919
 H        -5.8450323739        6.0499199157        1.9125687177
 H        -5.3769946378        4.7268330813        2.9425744422
 H        -5.8013758385        2.5298121949        1.5416546108
 H        -5.3513045897        3.6959256441        0.3574382174
 H        -6.8527453619        2.7990898698        0.0194033422
 H       -13.2899186950       -0.2723440646        1.2119800932
 H       -12.6651636830        1.2826068458        0.5801767361
 H       -13.5946553934        1.1913080631        2.1765693470
 H       -12.1872882891       -0.5211677145        3.9014867690
 H       -10.6491236794       -1.1931619205        3.4767743556
 H       -12.1156589482       -1.7254217383        2.5727571848
 H        -5.8084609597       -1.7008057135       -2.3694957095
 H        -7.5149464731       -2.2748103864       -2.1101249125
 H        -6.7584521213       -1.2813548946       -0.9355988168
 H        -6.3221388393        1.7826002782       -3.2628373895
 H        -5.1952022647        0.5281092346       -2.9669347292
 H        -6.0210746499        1.3082215529       -1.5960544935
 H        -9.1176675425        1.0703541785       -9.5530528437
 H        -9.2218023574        2.5065379884       -8.4697053889
 H       -10.2071043057        2.2899305750       -9.8060441416
 H       -12.2006530089        2.5280300202       -7.5438092512
 H       -12.9587872593        0.8720887356       -7.5752442764
 H       -12.6790777340        1.9498286138       -9.0327198696
 Na      -10.4763418452        4.9876179490        3.0719459256
