117

 C        -2.9160996258       12.8806394152        0.6114876299
 C        -3.9441138218       12.1350290291       -0.3075618902
 O        -5.0891353743       12.5071632397       -0.2028582279
 C        -3.6397983294       11.0035178570       -1.3989902880
 C        -3.5865487442        9.8121873334       -0.4557063251
 O        -2.6680187461        9.6641703715        0.3004523289
 C        -4.7758443514        8.8526997137       -0.2622637721
 C        -5.2955745591        8.7800240734        1.2015189596
 C        -6.4547721860        7.8005517845        1.3961716026
 O        -7.1018792211        7.3334265348        0.4554742139
 C        -6.6960325499        7.4387350344        2.9163298066
 C        -8.2372114384        7.1368413230        3.2147669043
 O        -8.9499324695        7.9343021284        3.7796820266
 C        -8.8775749082        5.8048264506        2.6604664812
 C       -10.2267657125        6.1906479600        1.9961810899
 C       -11.0761987381        5.0913813129        1.4391290914
 O       -10.6841617626        3.9387299118        1.3996737303
 C       -12.5110512312        5.5387041506        0.9174113174
 C       -13.2699207861        4.2144824652        0.4095090882
 O       -12.7793295671        3.4750683464       -0.4078638962
 C       -14.6522994923        3.9658346360        1.0248423307
 C       -15.2195966853        2.6268310268        0.4188355484
 C       -14.7020522108        1.3432375690        1.0793913373
 O       -13.6594686495        1.2846411573        1.7475174197
 C       -15.4301767883        0.0067821485        0.6533299132
 C       -14.3539144928       -0.5414079034       -0.4244818621
 O       -13.4324728609        0.2355890032       -0.7006976369
 C       -14.4422073504       -1.9565887389       -1.0284226275
 C       -13.1162461039       -2.4733734725       -1.6291234931
 C       -12.9153686177       -2.0826790432       -3.0946613887
 O       -13.7784289475       -1.6691769591       -3.8190275645
 C       -11.5543114711       -2.5730365313       -3.6934868236
 C       -10.4423872200       -1.8653513228       -2.9561152516
 O       -10.1988371550       -2.2380928865       -1.8378740286
 C        -9.7717217402       -0.5019467968       -3.4913269523
 C        -8.6637301382        0.0351698725       -2.5588585123
 C        -9.1102814094        0.8216867194       -1.3372144089
 O       -10.1177917628        1.5066650805       -1.3996179500
 C        -8.1862689553        0.7818777525       -0.0872634246
 C        -9.0105422525       -0.0067752396        1.0377197022
 O       -10.1478572900        0.3439812256        1.3327168067
 C        -8.3325214484       -1.2990836141        1.6494241673
 C        -6.7974576253        0.1828301356       -0.3965825798
 C        -7.8574161718        2.2061187893        0.4284581143
 C       -11.4708701380       -4.2561461887       -3.5967786109
 C       -11.5336887088       -2.1353812287       -5.2224828329
 C       -15.5460448052       -1.0463086062        1.7550949141
 C       -16.7032873564        0.2594900950       -0.1467150371
 C       -13.2096753796        6.2223368393        2.2168737219
 C       -12.4299959584        6.5334661606       -0.2160044417
 C        -5.7003948782        6.3131978570        3.4028486686
 C        -6.4357242856        8.6409720184        3.8673038660
 C        -4.7030060979       10.9547267878       -2.5282830921
 C        -2.2779004042       11.2763367481       -2.1029504073
 H        -3.3569272820       12.6557125068        1.5995193137
 H        -3.0269907162       13.9332028416        0.3798753749
 H        -1.8497265164       12.5434010452        0.5500424560
 H        -4.5452594322        7.8351288828       -0.5138259499
 H        -5.6854537269        9.0438335890       -0.9224598002
 H        -5.7235404647        9.6702269392        1.6042139682
 H        -4.4933123282        8.4519776156        1.8812264248
 H        -9.1662141403        5.1673800241        3.4658711530
 H        -8.2214040017        5.1669142309        2.0105165961
 H       -10.1766554986        6.9931798307        1.2845138598
 H       -10.8395962971        6.5885134347        2.8296116015
 H       -15.3537838977        4.7780816132        0.9202758342
 H       -14.4100633452        3.9065525103        2.0864656400
 H       -14.9153007532        2.5524098736       -0.5825626348
 H       -16.3039002894        2.5812042179        0.3990004012
 H       -15.2385221969       -1.8926755081       -1.8100617555
 H       -14.7332567713       -2.7446866233       -0.3369034102
 H       -13.3080506475       -3.5074677256       -1.6976929271
 H       -12.3388451854       -2.2740143269       -0.9638209429
 H       -10.5220237280        0.3055299129       -3.6019924244
 H        -9.2314791372       -0.6520531809       -4.4230446645
 H        -8.0923129292        0.7260558655       -3.2565093373
 H        -8.0176143442       -0.7895694321       -2.2867649562
 H        -8.1813010454       -2.0368148501        0.9048269795
 H        -9.0890180474       -1.7170230044        2.3910504947
 H        -7.3693863196       -1.0656368625        2.0329809445
 H        -6.4427150096        0.7120850287       -1.3157437249
 H        -6.7103811395       -0.8566779486       -0.5928281847
 H        -5.9967795441        0.4626635001        0.3316486550
 H        -8.6752561456        2.8909310184        0.4056249907
 H        -7.1370610387        2.6795358488       -0.2082325669
 H        -7.5231106469        2.1665895221        1.4615263935
 H       -12.3122332496       -4.7091637690       -4.1575789151
 H       -11.5201352577       -4.4634650305       -2.4967464928
 H       -10.4975803774       -4.5708268027       -3.9502421898
 H       -11.4971244454       -1.0397438725       -5.3447981533
 H       -12.3598142237       -2.5606282298       -5.7237209012
 H       -10.6535509019       -2.5600698053       -5.6776804185
 H       -16.5138713638       -1.0690306652        2.3244147509
 H       -14.7127924943       -0.9206086229        2.4202425522
 H       -15.3076723442       -2.0380685089        1.3821025349
 H       -17.4762107619        0.6938542591        0.4868344212
 H       -16.9885717244       -0.7035254902       -0.6217560123
 H       -16.5771696626        0.8729567878       -0.9543416155
 H       -14.2368890067        6.0118895830        2.1775376702
 H       -12.9606288206        7.3018235055        2.3769820536
 H       -12.7540504166        5.5720289506        3.0579861941
 H       -12.0342932721        5.9729352194       -1.0691495238
 H       -11.7139622128        7.2753718163        0.0860441934
 H       -13.2996714718        7.0082852861       -0.6164014557
 H        -4.7127710064        6.7323812338        3.5517926871
 H        -5.4747448133        5.5599842284        2.6291693159
 H        -6.0249261831        5.9152005914        4.3501430640
 H        -7.1378166099        9.4079569084        3.6265995106
 H        -5.3914973552        8.8563627795        3.8882970534
 H        -6.6913559573        8.2522534281        4.8421405231
 H        -5.6540668394       10.9108758686       -2.0803319324
 H        -4.4927089816       10.0206618814       -3.0663417637
 H        -4.6889395299       11.8463303487       -3.1551459944
 H        -2.1481626274       12.3417183338       -2.4157535359
 H        -2.3869168739       10.8075528333       -3.1056262809
 H        -1.3847443712       10.9986997926       -1.6151605129
 Na      -11.6287730744        1.7091772589        0.3348980495
