117

 C       -11.5451100534       -0.9276612310      -10.0322455771
 C       -10.9057080806       -0.5295635288       -8.6475453053
 O       -10.3820298336       -1.3904540019       -8.0239587661
 C       -10.9717825243        0.9306555263       -8.0309029051
 C       -10.4876152025        0.8127547742       -6.5489890058
 O       -11.2315524475        1.1721545996       -5.6497708410
 C        -9.0808349181        0.3252228040       -6.2509478391
 C        -8.5217525707        0.7949979226       -4.8591527645
 C        -7.9689289177       -0.4629824133       -4.1170482691
 O        -7.7882984974       -1.5257857442       -4.6662431940
 C        -7.3514534323       -0.3009730099       -2.6016156045
 C        -8.4975327098        0.2626248150       -1.6575603169
 O        -8.5366746443        1.4846714809       -1.5178658797
 C        -9.7318743397       -0.7156705068       -1.4467254529
 C       -10.7860944386        0.0438560549       -0.5959227004
 C       -10.5616324168       -0.0319240399        0.9087760793
 O        -9.5720196939       -0.5926209540        1.3276686702
 C       -11.5744254695        0.5686818345        2.0627987157
 C       -10.7918154115        1.7703630660        2.5914673337
 O       -11.3536072549        2.8276476754        2.4220101415
 C        -9.4403050270        1.5575965458        3.2393749117
 C        -8.2781989159        2.0560864382        2.3872289128
 C        -7.8525206482        3.5350154795        2.6891159523
 O        -8.1071478541        4.0820710250        3.7767341843
 C        -7.0485729617        4.2889276107        1.6675410148
 C        -8.0187387186        5.0497077844        0.6851525594
 O        -9.2308766864        5.0802060968        0.8720214300
 C        -7.3423016990        5.9357081335       -0.3302266055
 C        -8.1566008741        7.1566241629       -0.6183654868
 C        -7.8493818035        8.1678817313        0.5225247112
 O        -6.7312266124        8.2752128754        0.9966394886
 C        -9.0553297928        9.0797146866        1.0740321784
 C        -9.4991397476        8.1669022937        2.3172724867
 O       -10.1486457547        7.1531287275        2.0750500830
 C        -8.9507044886        8.4022348197        3.7254431723
 C        -9.3852993817        7.3697250417        4.7648029640
 C       -10.8381281316        7.1030872384        5.0975070227
 O       -11.3263841435        6.0302808144        4.8623970830
 C       -11.6166921892        8.2408057758        5.8544499124
 C       -12.2878909166        9.1821342926        4.7729540989
 O       -11.5781151365       10.0622810794        4.2903767885
 C       -13.6841673882        9.1288519643        4.2319127595
 C       -12.6984960825        7.5812794676        6.8076573151
 C       -10.6568728768        9.0917186389        6.7112345019
 C        -8.4329934243       10.4570413627        1.4773056947
 C       -10.1823210406        9.2931563896        0.1333811357
 C        -5.9713086208        5.3067537135        2.3059157173
 C        -6.1783485004        3.2348132521        0.8154687768
 C       -12.9835155986        0.8140044825        1.4542110818
 C       -11.7119527641       -0.5721082610        3.1239370851
 C        -6.8673855657       -1.6389299306       -2.1015264341
 C        -6.2115576413        0.7255928407       -2.7839723517
 C        -9.9049038596        1.7941593252       -8.8074340415
 C       -12.3999351107        1.5154486457       -8.0873924015
 H       -10.8364943690       -1.6676345904      -10.4962249781
 H       -11.5733039518       -0.0137327671      -10.6824015505
 H       -12.6070873522       -1.3566649091       -9.8676203687
 H        -8.2823194539        0.5055389412       -6.9357472484
 H        -9.1137958071       -0.8120401970       -6.1912663517
 H        -9.3126424011        1.3031091740       -4.3472225925
 H        -7.6666254781        1.4666109456       -4.9544397475
 H        -9.2400421137       -1.5388330783       -0.9624096218
 H       -10.1495854619       -1.0274047884       -2.3887122654
 H       -11.7948887343       -0.2010164802       -0.9241548680
 H       -10.6840228671        1.1516700866       -0.8214471736
 H        -9.1963524226        0.5053707690        3.3752425192
 H        -9.3918158893        2.0407125374        4.1764168285
 H        -8.5182180973        1.9471241203        1.3442087377
 H        -7.3953166012        1.4334580556        2.4826562956
 H        -7.3002306538        5.3305002224       -1.2183015825
 H        -6.3174169490        6.1625845999       -0.1044590013
 H        -9.2177509603        6.9732154055       -0.7189478741
 H        -7.8391655076        7.6869044521       -1.5869057188
 H        -9.2545204349        9.3835809956        4.0702125097
 H        -7.8577463197        8.5098726327        3.6507637298
 H        -9.0130628243        7.7279555259        5.7873372779
 H        -8.9516127350        6.3757427814        4.6364013878
 H       -13.6726806443        9.2971521614        3.2060895676
 H       -14.3896186524        9.7561327315        4.8117637536
 H       -13.9706387070        8.0763796724        4.2686769024
 H       -13.1595978768        8.4753658161        7.2952141249
 H       -12.1472629601        6.9444676527        7.5100358448
 H       -13.4231254880        6.9913290182        6.1933025729
 H        -9.9547486179        9.7194856910        6.1717185610
 H       -10.1942309497        8.4230931159        7.4131145602
 H       -11.2512241917        9.8020783238        7.2297556633
 H        -7.8189774908       10.4054654191        2.3454964375
 H        -9.3057196162       11.0968892307        1.6632872639
 H        -7.7739148278       10.7565639034        0.6572622819
 H       -10.9179716495       10.1019448381        0.4207625087
 H       -10.8268628991        8.4200977738       -0.0289064008
 H        -9.8530722010        9.6495560515       -0.8709777579
 H        -6.2770618997        6.3650655361        2.5081510048
 H        -5.0527280187        5.2015589953        1.6984648635
 H        -5.8234834901        4.9259736529        3.3229504418
 H        -5.3449372558        2.9466327158        1.5058077315
 H        -5.8104444228        3.7540144355       -0.0191664014
 H        -6.8474409966        2.4275923309        0.4700343118
 H       -13.2912526717       -0.0872307922        1.0074550754
 H       -12.9870055980        1.6316711511        0.7421748488
 H       -13.7315402291        1.0969565122        2.1331123344
 H       -12.1853789404       -0.1240880179        3.9211176699
 H       -10.7728737858       -0.9735123884        3.5407300544
 H       -12.3500991562       -1.3696165849        2.6906269968
 H        -6.1643761567       -2.0437256221       -2.8144510166
 H        -7.5733078866       -2.3269641953       -1.8811557866
 H        -6.3439707691       -1.4903202700       -1.1565278237
 H        -6.6371564730        1.6895251533       -2.7230773143
 H        -5.7031125309        0.7853350516       -3.7468837978
 H        -5.5320647572        0.7409016205       -1.9625031125
 H        -8.8114946841        1.6440229070       -8.5876977013
 H        -9.9785267807        2.8045491518       -8.4185559405
 H        -9.9001541370        1.7989877393       -9.8818739314
 H       -12.4705883622        2.5559766100       -7.7822041674
 H       -13.1267561104        0.9187408508       -7.5126889792
 H       -12.5721883795        1.6467272887       -9.1293220372
 Na      -10.3963364143        4.8096307187        3.0652790098
