117

 C       -11.4532043884       -0.9291956229      -10.0023196651
 C       -10.9073042011       -0.6138836597       -8.6185799214
 O       -10.4531977262       -1.4573457330       -7.8851675582
 C       -10.9679597465        0.8881778651       -8.0305267881
 C       -10.5159932097        0.7877679649       -6.4740637694
 O       -11.2435364735        1.2115072398       -5.5896054689
 C        -9.0920152610        0.3044338074       -6.1560816773
 C        -8.6098507469        0.7377750201       -4.7191873601
 C        -7.9367874255       -0.5081690714       -4.1074815741
 O        -7.8709435787       -1.5531621803       -4.6887127448
 C        -7.3884123829       -0.3024489453       -2.6393935311
 C        -8.6075673928        0.2677218882       -1.8290502218
 O        -8.5301597080        1.3554446103       -1.3470133714
 C        -9.7616164703       -0.6297195418       -1.4236848231
 C       -10.7830183827        0.1141750614       -0.5547564369
 C       -10.5861809143       -0.1792250842        0.8697871196
 O        -9.6812482700       -0.8770800888        1.3615378066
 C       -11.5746024497        0.4927571227        1.8723754288
 C       -10.8396587733        1.8690867630        2.4736629601
 O       -11.3709070990        2.9755171949        2.4946691845
 C        -9.4924109242        1.7313372060        3.2298013443
 C        -8.1740463399        2.0930260854        2.4127861496
 C        -7.7490688699        3.5361504574        2.7479547584
 O        -8.0466603961        4.0436129335        3.7972251487
 C        -6.8984666944        4.2393367522        1.6596283108
 C        -7.9132019326        5.0732090209        0.6855693899
 O        -9.1088773922        4.9759913956        0.8372354729
 C        -7.2829056561        5.9517841279       -0.4801057184
 C        -8.1271101116        7.2639350336       -0.6483523962
 C        -7.8221118048        8.2515650249        0.4359297422
 O        -6.7333015078        8.3722050885        0.9851525761
 C        -9.0432470848        9.0508419790        1.0790242125
 C        -9.4584047462        8.1436845104        2.3499889928
 O       -10.1604743251        7.1188366617        2.1273508455
 C        -8.8800976032        8.4489055173        3.7133321174
 C        -9.2734609488        7.3599737714        4.6852022247
 C       -10.8112438844        7.1334542582        5.0862803012
 O       -11.3564064876        6.0710249007        4.8333935342
 C       -11.6716432319        8.2368531411        5.8287984923
 C       -12.2160966850        9.2437515896        4.6575081111
 O       -11.4926914020       10.1601708614        4.3720755270
 C       -13.6467373843        9.0490511873        4.1472518047
 C       -12.8406767293        7.5780331789        6.6563501514
 C       -10.7768184460        9.0925572760        6.6992349042
 C        -8.4637735907       10.4973221085        1.5477892607
 C       -10.1941123144        9.3595208417        0.1361083354
 C        -5.9952820418        5.2153878828        2.3789992967
 C        -6.1409680334        3.2022957876        0.7947263816
 C       -12.8980322026        0.8657274757        1.3298791946
 C       -11.7388550907       -0.5792458853        3.0196880259
 C        -6.8982133333       -1.5712293215       -1.9949948115
 C        -6.2108310148        0.6312471746       -2.8396182736
 C       -10.0108915558        1.8096644867       -8.7241481490
 C       -12.3658399429        1.4795298911       -8.0509809228
 H       -10.5877995267       -1.3402643726      -10.5356645471
 H       -11.7761474195       -0.0362410790      -10.5606751237
 H       -12.2647773789       -1.6531790547       -9.8723659068
 H        -8.3414394507        0.6665892723       -6.7943788890
 H        -9.0053322199       -0.7395924253       -6.2214527519
 H        -9.5140536283        0.9454771839       -4.1615232628
 H        -8.0217508254        1.5616113014       -4.6815615318
 H        -9.3138515084       -1.4060201488       -0.7504328170
 H       -10.2720581856       -1.1195145409       -2.2338133983
 H       -11.6958258994       -0.3390901021       -0.8027654545
 H       -10.9697269964        1.2318636213       -0.6498150467
 H        -9.3155578600        0.7105896855        3.5426289409
 H        -9.4519422639        2.4364857487        4.0969007370
 H        -8.2730841552        1.8928706149        1.3702194463
 H        -7.3361345637        1.4779390682        2.6943395029
 H        -7.2822755726        5.3566782065       -1.4298925679
 H        -6.1988747549        6.1766805890       -0.2992039527
 H        -9.2449101520        7.1198853087       -0.6589283013
 H        -7.9299105640        7.7728899672       -1.6156980099
 H        -9.2343213260        9.4613638943        3.9773354959
 H        -7.7666581872        8.5868440668        3.6267728046
 H        -8.6754934235        7.3917337591        5.6373844538
 H        -9.0341686798        6.3741493150        4.2111139412
 H       -13.9570517333        9.6763854171        3.3630827560
 H       -14.2430163624        9.1703906539        5.0763015490
 H       -13.7645837666        8.0141173328        3.8057567011
 H       -13.0108022238        8.3156924523        7.4765159905
 H       -12.5009317871        6.6128767839        6.9783401460
 H       -13.7338240511        7.4269867847        6.0045139271
 H        -9.8483484059        9.3477181477        6.1878400636
 H       -10.5509932349        8.5533841090        7.5937204319
 H       -11.2397582962       10.0726058808        6.8419892369
 H        -8.3524110715       10.6922738063        2.6315453979
 H        -9.2603150477       11.2140199049        1.1881253226
 H        -7.4654591728       10.6203611713        1.1630034082
 H       -10.9900629417        9.9688530005        0.5820645447
 H       -10.7765041380        8.5467598255       -0.2779423618
 H        -9.8318714178        9.9293443922       -0.7202851943
 H        -6.5339312200        6.1697940994        2.5129452212
 H        -5.0359452123        5.3438149322        1.8962295010
 H        -5.9332552611        4.9000120374        3.4415536204
 H        -5.6400223521        2.5601250458        1.5330189976
 H        -5.4582521887        3.7213458737        0.0914461930
 H        -6.9472571124        2.7254826614        0.2162064558
 H       -13.2029168169        0.0525277857        0.6331189073
 H       -12.8604610016        1.8017437014        0.8393894881
 H       -13.7214326104        1.0113581178        2.0107354581
 H       -12.0805423104       -0.0300161943        3.8830622137
 H       -10.8390780187       -0.9764307956        3.3037787595
 H       -12.4583204759       -1.3710952995        2.7044707019
 H        -6.1328437979       -2.0417747983       -2.5843265306
 H        -7.6925985203       -2.2911799569       -1.8745861776
 H        -6.5441044349       -1.3595360916       -1.0187497622
 H        -6.4693235229        1.7005421377       -2.8498386094
 H        -5.7181503516        0.5120808950       -3.7866045566
 H        -5.5488915897        0.5555023201       -2.0284163042
 H        -8.9687615027        1.9469663826       -8.4124695520
 H       -10.2993729104        2.8781397444       -8.6355100632
 H        -9.9437078532        1.5408105871       -9.7684049579
 H       -12.3842696461        2.5359066659       -7.9390790250
 H       -12.9009716981        1.0564281852       -7.1641945723
 H       -12.8256658495        1.3646342141       -9.0034612262
 Na      -10.4148424535        4.8983870964        3.0485668942
