117

 C       -10.9946336115       -1.1121949135       -9.9339091105
 C       -10.9989836060       -0.7025083575       -8.4155281615
 O       -10.8158924316       -1.6704997917       -7.6566359992
 C       -11.0995270120        0.7805500650       -7.9046398163
 C       -10.5968526239        0.9119027541       -6.3721824136
 O       -11.2822560472        1.4420825564       -5.5247434764
 C        -9.1911240288        0.3983105155       -6.0303073555
 C        -8.8687868515        0.5086785502       -4.5127337844
 C        -8.0758621740       -0.6659680828       -3.9675965765
 O        -7.9856478883       -1.7527477962       -4.5303922269
 C        -7.3423590604       -0.3858003804       -2.5186048016
 C        -8.3898795583        0.1154492107       -1.4875880258
 O        -8.3114538169        1.1743774036       -0.9029672737
 C        -9.6944732351       -0.6533102591       -1.3300552787
 C       -10.8076142968        0.1762163771       -0.5972023852
 C       -10.7809873283       -0.1361318781        0.9011936096
 O       -10.1177305872       -0.9976678019        1.4024815604
 C       -11.6510983136        0.6658354753        1.8866382176
 C       -10.7441983151        1.9352429383        2.3634851041
 O       -11.1769598447        3.0607741983        2.1309710312
 C        -9.3939987317        1.5499942751        3.0440736580
 C        -8.1747676944        2.0548724632        2.2451815197
 C        -7.7780892943        3.5062632857        2.5767012823
 O        -8.2231388321        4.1324504674        3.4898940316
 C        -6.7543089131        4.2475624912        1.6208980648
 C        -7.7029157914        5.1029412745        0.7131444417
 O        -8.9010829723        4.9646771097        0.7954199494
 C        -7.0924797784        6.0514645483       -0.4115292654
 C        -8.1474212150        7.2170129269       -0.4651405829
 C        -7.8181573465        8.3109717854        0.5583656704
 O        -6.7034644379        8.5526388580        0.8915059331
 C        -9.0240582863        9.1581854168        1.1826810860
 C        -9.4901494975        8.2020306160        2.3671082138
 O       -10.2331384638        7.2457703444        2.0629783792
 C        -8.9057929528        8.5024806141        3.7420860772
 C        -9.3031928532        7.4586080143        4.8326653507
 C       -10.8482828504        7.1973018912        4.8599191879
 O       -11.3899328460        6.2326766526        4.3214729362
 C       -11.7122494106        8.1926571225        5.7522945266
 C       -12.0612258941        9.2906692022        4.6159073536
 O       -11.2738488328       10.1804182710        4.4514289163
 C       -13.2157545087        8.9779697743        3.6280819388
 C       -13.0474377561        7.6071620339        6.2918800107
 C       -10.8982495094        8.9825632864        6.8250833194
 C        -8.4481745733       10.5040492544        1.6187695518
 C       -10.1247645558        9.3258478336        0.0843905405
 C        -5.8095186047        5.1498757164        2.4842433281
 C        -6.0183490044        3.1534086480        0.7852117970
 C       -12.9703979102        1.2616681827        1.2973801156
 C       -12.0462761120       -0.2561979741        3.0964667410
 C        -6.7193046337       -1.7304563562       -1.8948733832
 C        -6.1028961072        0.5648685517       -2.6497240677
 C       -10.3562109231        1.8571661698       -8.7804474657
 C       -12.6856539438        1.2047530127       -7.8754445860
 H       -10.1553592091       -0.4640862517      -10.3277876109
 H       -11.8905718977       -0.7386740908      -10.5270164898
 H       -11.0520981198       -2.1995560510      -10.0687332046
 H        -8.3701654962        0.9017813439       -6.5941767830
 H        -9.0582498978       -0.6573117989       -6.2173832936
 H        -9.8767749268        0.5146838242       -4.0071688572
 H        -8.4018308804        1.3830672646       -4.1806713905
 H        -9.6047463260       -1.6304116756       -0.8904036461
 H        -9.9786538178       -0.6704407174       -2.3623710543
 H       -11.7916465291       -0.1299600219       -0.8591716041
 H       -10.7101269238        1.2652486466       -0.9116917586
 H        -9.3134737220        0.5113161757        2.9953566469
 H        -9.3365322725        1.9793514862        4.0401817683
 H        -8.3785414296        1.9812900871        1.1980445154
 H        -7.2697225511        1.4940752585        2.3781518174
 H        -6.8496460396        5.5427046209       -1.3372053545
 H        -6.1620154961        6.4339630685       -0.0133727430
 H        -9.2327844582        6.9109591021       -0.4148881101
 H        -8.1111392747        7.7936489792       -1.3989505127
 H        -9.1116212136        9.5265714926        3.9924122236
 H        -7.8124796614        8.3936461595        3.6691512971
 H        -8.9543334536        7.7718296825        5.8404165371
 H        -8.8177233222        6.4686841095        4.5982020617
 H       -13.1824563350        9.7112483707        2.7693823116
 H       -14.1870220809        9.0978413453        4.0446794776
 H       -13.1057873169        7.9794808558        3.2661481942
 H       -13.8824512195        8.2011983955        5.8686796929
 H       -13.1005324834        7.6045316345        7.3985426910
 H       -13.0142882954        6.5642201034        5.9405471039
 H       -10.4796825107        9.8501081339        6.3557187737
 H       -10.0735836536        8.4496082758        7.2333580061
 H       -11.6170731940        9.2888785251        7.5889655494
 H        -9.0907498106       11.3729358667        1.4777127285
 H        -7.4973801306       10.7068694582        1.1167125602
 H        -8.1934589376       10.4943377538        2.6554282975
 H       -10.9244312427        9.9906274055        0.4405820326
 H       -10.7094209884        8.3975614481       -0.1498971936
 H        -9.6727388761        9.5623767011       -0.8928092839
 H        -6.2851448779        5.3347428921        3.4707320848
 H        -5.6457297711        6.1497127851        2.0539910473
 H        -4.8244699799        4.6293615072        2.5998737174
 H        -5.5320875588        2.5306105605        1.5034337946
 H        -5.3409314107        3.7060112512        0.0698296924
 H        -6.7380720123        2.5548729841        0.2372405110
 H       -13.6817391922        0.4486041944        1.1730601803
 H       -12.9200085180        1.7937565197        0.3991961906
 H       -13.3991161394        1.9228040277        2.0137381169
 H       -12.6428088773        0.4324101943        3.7534548221
 H       -11.1779019719       -0.4988466125        3.6353203203
 H       -12.6174978572       -1.1351359418        2.8464021366
 H        -5.9228149147       -2.0430024897       -2.5046086481
 H        -7.4820281665       -2.5286082362       -2.0516852167
 H        -6.4409123992       -1.6672352711       -0.8878201321
 H        -6.2278696197        1.4371434769       -3.3484738566
 H        -5.2310812911        0.0095963873       -2.9695102128
 H        -5.8218376955        0.9723029207       -1.6948924386
 H        -9.4403511110        1.5877013696       -9.3022696766
 H        -9.9937081207        2.6456594303       -8.0700514360
 H       -11.0579604966        2.4206116654       -9.4247182237
 H       -12.8460494085        2.0153856091       -7.1853570296
 H       -13.3266676305        0.3973454911       -7.4365021591
 H       -13.0373393607        1.4212337875       -8.8941110601
 Na      -10.2538041706        4.9237085625        2.7736670130
