117

 C       -10.7389674306       -0.9415461734       -9.7517628295
 C       -10.9452387668       -0.7952572583       -8.2577980458
 O       -11.1168000121       -1.6902065854       -7.4199803323
 C       -11.2033708158        0.6806720918       -7.6633136535
 C       -10.6726599478        0.8498038891       -6.2135344629
 O       -11.2009584191        1.6006211714       -5.4187149831
 C        -9.4316932930        0.0926550536       -5.9126037977
 C        -8.7042253727        0.5348651936       -4.6289805931
 C        -8.1196167963       -0.6483467585       -3.8767727077
 O        -8.0514758875       -1.7246492879       -4.4774545548
 C        -7.4022542764       -0.4275895523       -2.4051139265
 C        -8.3672106506        0.1006454612       -1.3417738644
 O        -8.0221753534        1.0216807079       -0.6389993931
 C        -9.6845435926       -0.6543779418       -1.1882962715
 C       -10.8983726769        0.0653623291       -0.5060499300
 C       -10.9927520744       -0.1475667201        0.9936189437
 O       -10.4722882844       -1.0948858896        1.5360203582
 C       -11.7997309304        0.9057560974        2.0050010124
 C       -10.7177373877        1.9119823903        2.3181027745
 O       -10.8801688226        3.0129510192        1.8326884734
 C        -9.4269762501        1.5715821127        2.9556854125
 C        -8.1947431174        1.8906590626        2.1045469913
 C        -7.6675239603        3.3410611658        2.4658960065
 O        -8.0941332041        3.9469661066        3.4235017153
 C        -6.7897650713        4.2399044061        1.5633881370
 C        -7.7662561882        5.0935141583        0.7041970223
 O        -8.9746179824        5.0470172079        0.7198453711
 C        -7.0034270774        6.0630358547       -0.3434036004
 C        -7.7833557189        7.3563943142       -0.5394630372
 C        -7.5843467723        8.4177796634        0.6157024272
 O        -6.5309284662        8.5194078638        1.1710477622
 C        -8.9046141112        9.2269940350        1.0898065100
 C        -9.3829038040        8.3515989193        2.2087921845
 O       -10.1501843099        7.3969379977        1.9420325505
 C        -8.9691360035        8.5054489839        3.6137221166
 C        -9.4105568125        7.3864201771        4.5917213668
 C       -10.9497200430        7.1115021569        4.8142104802
 O       -11.4474903806        6.1021546998        4.3722507814
 C       -11.8004790283        8.2213461756        5.5759464593
 C       -11.9701749592        9.3146686105        4.4406701583
 O       -11.3235467142       10.3313526368        4.4829300584
 C       -12.8415628977        8.9964490365        3.2577975077
 C       -13.1049053406        7.5350874473        6.0364330118
 C       -11.0181625526        8.7788882916        6.7746816406
 C        -8.4427180124       10.5983024965        1.5133967939
 C       -10.0695230431        9.4155663114        0.1495141704
 C        -5.9208983611        5.0940985629        2.5005077261
 C        -5.8678099308        3.4218719820        0.5906397943
 C       -13.0262792308        1.3294392164        1.2581864138
 C       -12.2774690664        0.1130948687        3.2710613849
 C        -6.8851731619       -1.8800979732       -2.0689155146
 C        -6.2603774188        0.6333109835       -2.6226755918
 C       -10.3925566031        1.6969014786       -8.5302197613
 C       -12.7828797961        0.8488907341       -7.7462953607
 H       -10.0940638938       -0.1938888481      -10.1269133337
 H       -11.6529246793       -0.9413340018      -10.2956878746
 H       -10.3917535321       -1.9290469490       -9.7981662539
 H        -8.6769685909       -0.0288056629       -6.7087140007
 H        -9.8005054576       -1.0071516660       -5.7343430777
 H        -9.4129789575        1.1532457396       -3.9836981099
 H        -7.9039758122        1.2752233444       -4.8350868087
 H        -9.3366620700       -1.5212750092       -0.5458791722
 H       -10.1722042271       -1.0083383805       -2.1134738933
 H       -11.7976788675       -0.2495819767       -0.9576534105
 H       -10.9023971857        1.1929562677       -0.6831989261
 H        -9.2818009729        0.5057554659        3.2165637858
 H        -9.3959323820        2.2589145373        3.8296208293
 H        -8.4298617099        1.8835029509        0.9953757498
 H        -7.4258023480        1.0711018084        2.3023426635
 H        -6.6261145123        5.5056158490       -1.1903240705
 H        -6.1309165701        6.3230139165        0.2318399714
 H        -8.8191292803        7.2361284315       -0.6987019052
 H        -7.4205883708        7.8399116269       -1.4533780447
 H        -9.2069017734        9.4560342403        4.0580228493
 H        -7.8626842344        8.4333454943        3.5029049793
 H        -9.0273155804        7.5403053573        5.5937621357
 H        -9.0185340609        6.4689571746        4.2805267734
 H       -12.2466116489        9.1475111126        2.3516954528
 H       -13.6344225483        9.7563979552        3.0516344165
 H       -13.2040561033        7.9774556116        3.3349630307
 H       -13.8973612362        7.6719078448        5.2940960898
 H       -13.4538929584        7.9703311374        6.9164131367
 H       -12.8973723629        6.4785726966        6.1321014302
 H       -10.0536946490        9.2304375862        6.4416184429
 H       -10.8193810742        8.0139112362        7.5379741811
 H       -11.7080261508        9.4692412204        7.2941571565
 H        -9.2752820517       11.1259640068        1.9683137366
 H        -8.0782828592       11.1834762638        0.6272896013
 H        -7.5820711196       10.6351714090        2.1281166209
 H       -10.7599226834       10.1559028661        0.5949490953
 H       -10.5483486536        8.5019086123       -0.1979359002
 H        -9.6547890795        9.8483372183       -0.7684314093
 H        -6.5187494092        5.6916037987        3.1570905321
 H        -5.3296224271        5.7929995533        1.9828283210
 H        -5.2385497161        4.4176609622        2.9735013018
 H        -5.4597583166        2.6236005726        1.2107235434
 H        -5.0508760894        4.0593136540        0.2718932868
 H        -6.4490172566        2.9246447875       -0.1717855193
 H       -13.5596617682        0.4530172005        0.7304975559
 H       -12.7650818427        1.9744535756        0.4114356236
 H       -13.7925656125        1.7572321715        1.9392189904
 H       -12.7557084643        0.8117362534        3.9997087951
 H       -11.5191293704       -0.5338631347        3.6707884762
 H       -13.1499492697       -0.5250097677        2.9142364070
 H        -6.6121427213       -2.3666572700       -3.0574598713
 H        -7.7543309116       -2.4633986534       -1.6553080069
 H        -5.9279324473       -1.8499719529       -1.4980309313
 H        -6.7308440155        1.6304182226       -2.5168162516
 H        -5.7846381184        0.4232228765       -3.5956055318
 H        -5.4041958273        0.5342503132       -1.9845342058
 H        -9.3055818099        1.4905467920       -8.5544003973
 H       -10.6399477419        2.7208009031       -8.2742611315
 H       -10.7924854367        1.7366350067       -9.5020410474
 H       -13.1272151508        1.8341420397       -7.4736110306
 H       -13.2968481555        0.0975996379       -7.0804072623
 H       -13.1423215976        0.4851629439       -8.6797876597
 Na      -10.2040791294        5.2266253281        2.7011433690
