117

 C       -10.6478504774       -1.0875229838       -9.6386788878
 C       -10.9524733772       -0.8439311101       -8.1641736543
 O       -11.1177592187       -1.8592739056       -7.4856508470
 C       -11.2609464499        0.6709409532       -7.6361915298
 C       -10.7382226518        0.8612357348       -6.1415337972
 O       -11.1966450678        1.6531798182       -5.3433616310
 C        -9.5573191974        0.0245975920       -5.8607357337
 C        -8.6981958032        0.5156317908       -4.6573292627
 C        -8.1188086499       -0.6577699758       -3.9028210254
 O        -8.1146604911       -1.7647998791       -4.4005015121
 C        -7.3822323444       -0.4501888600       -2.5259088230
 C        -8.3552488760        0.0544036746       -1.3510710554
 O        -8.1090245848        1.0371416263       -0.6468390741
 C        -9.7282203203       -0.6879785113       -1.2517437097
 C       -10.8798880759        0.0912582498       -0.4252448779
 C       -10.9302565036       -0.2367575220        1.2020027039
 O       -10.6250078675       -1.3245737684        1.6006081218
 C       -11.7886107158        0.8446683688        1.9317930680
 C       -10.6963465435        2.0782981951        2.3077447512
 O       -10.9148886900        3.1916957148        1.8034952541
 C        -9.4275416449        1.6190312618        3.0690873086
 C        -8.2008154235        1.9625839589        2.2114793634
 C        -7.7844108949        3.3836563974        2.3896072933
 O        -8.1502946439        3.8990393079        3.4010318364
 C        -6.7801291013        4.1815733785        1.4948986620
 C        -7.6817510600        5.1420257360        0.7118311997
 O        -8.8802713996        5.1678195074        0.7420109210
 C        -6.9836471053        6.1066050376       -0.2835797762
 C        -7.6777363683        7.4216575679       -0.5221449550
 C        -7.5872252004        8.3787914105        0.6259324260
 O        -6.5982026483        8.5517911907        1.2609082462
 C        -8.8981119812        9.2772932093        1.0811872955
 C        -9.4041186993        8.3115122858        2.1728402092
 O       -10.1635440580        7.4060644594        1.8081601382
 C        -8.9832230717        8.5651572942        3.6522795852
 C        -9.3804094198        7.4241407507        4.6198572638
 C       -10.8866364024        7.1308645610        4.7188048550
 O       -11.3763391711        6.0579636693        4.3756668553
 C       -11.7681397401        8.1166342287        5.4675807259
 C       -11.9418984711        9.2759493158        4.3745562595
 O       -11.3906553932       10.3290341989        4.6250206720
 C       -12.7890414556        9.0637291957        3.1028829097
 C       -13.1806589576        7.5730920302        5.9491167049
 C       -10.9981033769        8.7490184591        6.6152999488
 C        -8.3123811464       10.6115056943        1.6735565218
 C        -9.9463492194        9.3612861920       -0.0115600530
 C        -6.0124760176        5.1819003550        2.4829553082
 C        -5.8863064035        3.3396535500        0.5292877300
 C       -12.9679471342        1.3831683713        1.1060520221
 C       -12.3052762743        0.1684981251        3.2909248150
 C        -6.7809606118       -1.8380205228       -1.9975413005
 C        -6.2666522764        0.4831141252       -2.6429384212
 C       -10.5304607761        1.7611385801       -8.4581380171
 C       -12.7617420879        0.9893897791       -7.6642992578
 H        -9.8073519855       -0.4245297673      -10.0266738023
 H       -11.5392789959       -0.9369440495      -10.2616380989
 H       -10.3898624701       -2.1388222717       -9.6502844726
 H        -8.8370583760       -0.0066806918       -6.7963256293
 H        -9.8411663132       -1.0428813173       -5.7289026789
 H        -9.3464995604        1.2013005237       -3.9683006537
 H        -7.9245106274        1.2119006571       -4.9709314480
 H        -9.6520562131       -1.7266054071       -0.8919158210
 H       -10.1434520852       -0.6956831186       -2.2283239959
 H       -11.8053238295       -0.2583910554       -0.8412567627
 H       -10.9169757586        1.2098547551       -0.5891912801
 H        -9.4245290438        0.5816461897        3.1883436130
 H        -9.3403429967        2.1726334408        4.0150515353
 H        -8.3925198807        1.9289686376        1.1305698585
 H        -7.3722979654        1.2574072035        2.4296240166
 H        -7.0175644069        5.5603943958       -1.1851188242
 H        -5.9618997870        6.1722032199       -0.0444927703
 H        -8.7496592095        7.2930606023       -0.7908831147
 H        -7.2059649832        7.8420511988       -1.3845784361
 H        -9.2909505243        9.5081714613        4.0280146917
 H        -7.8979750088        8.5620312808        3.5606096902
 H        -9.0417625527        7.4833096547        5.6321331757
 H        -8.9286623901        6.4902628820        4.2520339476
 H       -12.0837792564        9.1376192433        2.1773543886
 H       -13.3864308009        9.9001865211        2.8839408412
 H       -13.3356127625        8.1486037847        3.1139373594
 H       -13.8878275377        7.3892066146        5.1754712825
 H       -13.6332379035        8.3374866110        6.6217888422
 H       -13.0163893206        6.6307760646        6.4350035273
 H        -9.9854173727        8.9694536717        6.3119331386
 H       -11.0215722809        8.2365690193        7.5816397013
 H       -11.5447791638        9.6929510636        6.8136084367
 H        -8.8149146367       10.8693366487        2.5842165897
 H        -8.3851074150       11.4150997799        1.0332736292
 H        -7.2588249327       10.5711320241        1.8190272828
 H       -10.8749302314        9.8095526709        0.3770830927
 H       -10.0923319657        8.3362898068       -0.4349382355
 H        -9.6530185316        9.9887288353       -0.9150682573
 H        -6.7138497697        5.9440799282        2.6812132595
 H        -5.1636621903        5.6852350341        2.0928574281
 H        -5.6901303182        4.6792954927        3.3702014860
 H        -5.5423142053        2.4549189489        0.9707894533
 H        -4.9827137032        3.9803531844        0.3239382766
 H        -6.4463115044        3.0461082858       -0.3320425886
 H       -13.6079654884        0.6243953310        0.6349344066
 H       -12.5499511090        1.9006184872        0.2583828414
 H       -13.6447139242        2.0085956785        1.7088104222
 H       -12.4884633811        1.0373859506        4.0379594700
 H       -11.5585529568       -0.5647976788        3.6347374759
 H       -13.2382749364       -0.2938498254        3.1983878680
 H        -6.2517393419       -2.3089407832       -2.8285815473
 H        -7.7000870655       -2.4951626985       -1.7375205237
 H        -6.0217689056       -1.6711991929       -1.2457755083
 H        -6.6088998418        1.5121586954       -2.3336227410
 H        -5.7261204385        0.4214982858       -3.5726649024
 H        -5.4833517174        0.1612311031       -1.9482855170
 H        -9.5556180796        1.9377088257       -8.1364507593
 H       -11.2047144733        2.5907324162       -8.3861467225
 H       -10.5526693921        1.6659513382       -9.5401585943
 H       -12.9325206940        2.0551813512       -7.5889589207
 H       -13.3283677841        0.4598357911       -6.9102505973
 H       -13.1967848313        0.5128026551       -8.5625459250
 Na      -10.1400729635        5.1783527574        2.6649296852
