117

 C       -10.5550674744       -1.1232516264       -9.6230787174
 C       -11.0813181470       -0.8592513784       -8.1136169051
 O       -11.1487963623       -1.7820377451       -7.3679126001
 C       -11.3891610002        0.6714265296       -7.6496776860
 C       -10.7321122215        0.8373987552       -6.1402444681
 O       -11.2590418877        1.6465609889       -5.3975760024
 C        -9.4977155923       -0.0369338461       -5.7575668146
 C        -8.6616828947        0.4882525311       -4.5526679906
 C        -8.0686227933       -0.7552899005       -3.8410289157
 O        -8.1757134170       -1.8591880533       -4.2815751315
 C        -7.3802788888       -0.4866341016       -2.4588504376
 C        -8.5096429891        0.0114555607       -1.4753176299
 O        -8.1460946529        0.9842137640       -0.8117398776
 C        -9.8063860100       -0.7504986942       -1.2545883282
 C       -10.7396028341        0.0500299554       -0.3483706276
 C       -11.0298623563       -0.3826705746        1.0792763299
 O       -10.6948599434       -1.3742156837        1.6661589393
 C       -11.7008097445        0.8890012726        1.8544779048
 C       -10.7519247735        1.9887588165        2.2197558219
 O       -11.0143457278        3.1516402725        1.9173932413
 C        -9.5657394188        1.6146562788        3.0177428963
 C        -8.2158150121        1.9335318345        2.2611291693
 C        -7.8009053889        3.4416990997        2.5392663433
 O        -8.2830378015        4.0629625413        3.4896775862
 C        -6.8203878988        4.2004665766        1.5313844951
 C        -7.6267574088        5.1925914114        0.5222920795
 O        -8.8282740185        5.3318074867        0.7329101185
 C        -6.8196263678        6.1672792441       -0.4287700538
 C        -7.6454370754        7.4736589555       -0.6097746370
 C        -7.5710524472        8.4138358438        0.6576286488
 O        -6.5599620503        8.4917144176        1.3527592094
 C        -8.8303298516        9.2693071967        1.0924480697
 C        -9.4725465270        8.3054513634        2.2029835000
 O       -10.1608897614        7.4140388575        1.8343159705
 C        -9.0303570098        8.4734825251        3.6272960668
 C        -9.3170200996        7.2819856012        4.5173727835
 C       -10.8104835006        7.0075480179        4.7756472510
 O       -11.3073243747        5.9911700213        4.2962534992
 C       -11.7323831223        8.1942021522        5.4017050919
 C       -12.0183601622        9.3605755921        4.3587642688
 O       -11.4770413907       10.4221195859        4.5946414856
 C       -12.7351808002        9.1079680546        3.0488317178
 C       -13.1046909288        7.6096932918        5.7801334720
 C       -11.0922648339        8.8051008846        6.6646397418
 C        -8.3500969609       10.6257303915        1.6980323206
 C        -9.7677648456        9.4914113173       -0.1369599962
 C        -5.9746886958        5.1321912165        2.4163527692
 C        -5.9388368742        3.3118994029        0.6299220453
 C       -12.8336343261        1.4796748213        1.1153404715
 C       -12.2210188009        0.3410583557        3.2494412759
 C        -6.8220156053       -1.8646601498       -1.9317853585
 C        -6.1357652306        0.5591359228       -2.6674196875
 C       -10.5980784579        1.7615887433       -8.4283299871
 C       -12.8568368711        0.9768202015       -7.5954021807
 H        -9.5940696492       -0.5220423723       -9.6957224441
 H       -11.2785295441       -0.6358205098      -10.3327771641
 H       -10.3813861894       -2.2444159145       -9.8394916510
 H        -8.8173233009       -0.1990564771       -6.6071635891
 H        -9.8155555393       -1.0245246838       -5.5291584581
 H        -9.3184623958        1.0642932960       -3.9074827476
 H        -7.9126736801        1.2514404832       -4.8328087190
 H        -9.6631375561       -1.7399604608       -0.8516820190
 H       -10.3775848946       -0.8737529758       -2.1727243653
 H       -11.6961336799        0.1606229097       -0.9535357968
 H       -10.4221529887        1.0428404043       -0.1752921017
 H        -9.5426759199        0.5934085433        3.3547128837
 H        -9.4979755495        2.2935311753        3.8378012401
 H        -8.1554760721        1.8257873751        1.1956407248
 H        -7.4773469244        1.3332381412        2.7334962646
 H        -6.7399789596        5.6814952298       -1.3892462092
 H        -5.8061262186        6.1936699037       -0.0279197965
 H        -8.7156614578        7.2353152438       -0.8387244546
 H        -7.2359608492        7.9704850507       -1.5070723754
 H        -9.6680105678        9.2715925437        4.0472471810
 H        -8.0169160698        8.8111937518        3.7114659325
 H        -8.8645925868        7.4471177448        5.5126502247
 H        -8.8488399775        6.3143700630        4.1727549387
 H       -12.0215396004        9.0919404447        2.2588201727
 H       -13.2824658596        9.9870296732        2.7549839476
 H       -13.3744868084        8.2142016166        3.0422479519
 H       -13.5977174315        6.9857072519        5.0269207221
 H       -13.7864235492        8.4524357721        6.0477185655
 H       -12.9576854563        6.8974908086        6.6142643402
 H       -10.0684498907        9.0669738236        6.4288371001
 H       -11.1026488462        8.0700028100        7.4694715231
 H       -11.6151754754        9.6456569347        7.0670703287
 H        -8.7407149233       10.7677717209        2.6691084529
 H        -8.6628598280       11.4452888364        1.1156284378
 H        -7.2828009077       10.7920492825        1.6907913467
 H       -10.6627787335        9.9994811202        0.2677459752
 H       -10.0106195470        8.4989371674       -0.5785493156
 H        -9.4571868537       10.1431803673       -0.9956167050
 H        -6.4598487631        6.0992522222        2.4479955035
 H        -4.9685134382        5.3438673400        2.0207846863
 H        -5.8053614097        4.7609359754        3.4114108946
 H        -5.4936229408        2.3992452519        1.0674550749
 H        -5.1047192879        3.9037695008        0.2880723903
 H        -6.6061621944        2.9807506410       -0.1752175502
 H       -13.4572600616        0.7211556808        0.7994000328
 H       -12.4421000025        1.8893242359        0.1967974399
 H       -13.4440337495        2.1699769889        1.6479572191
 H       -12.3552043511        1.1195599114        3.9299789680
 H       -11.5280540171       -0.4564671379        3.6026823907
 H       -13.2008358726       -0.0842408294        3.1171899016
 H        -6.0028483524       -2.0619677447       -2.5965974995
 H        -7.5461639153       -2.6046800434       -2.0053649428
 H        -6.3316580021       -1.7197089379       -0.9696350545
 H        -6.4824668570        1.5785361705       -2.6494073780
 H        -5.6483816696        0.2666264681       -3.5989613157
 H        -5.3013209534        0.4342653369       -1.9257931976
 H        -9.6191899386        1.8320364660       -8.0040434025
 H       -11.2022194809        2.6455078451       -8.4546567467
 H       -10.4951062730        1.5897600207       -9.5152068555
 H       -12.9136374615        2.0559209368       -7.3849553174
 H       -13.4375319615        0.3968646608       -6.9320237028
 H       -13.3263979353        0.6990750151       -8.5609987935
 Na      -10.0806724179        5.0773378353        2.6612992081
