117

 C       -10.5842033701       -1.0902648162       -9.2827460566
 C       -11.3719887585       -0.8604461896       -7.9042562800
 O       -11.9244884745       -1.8315548150       -7.4180836493
 C       -11.4072803608        0.5514792535       -7.3549438055
 C       -10.6784724335        0.6884433932       -5.9725189584
 O       -11.0943967368        1.4799457474       -5.1422222444
 C        -9.5591483185       -0.3279410150       -5.6063889675
 C        -8.8461882757        0.0825256586       -4.2705243558
 C        -8.1980011098       -1.0785797851       -3.5359508633
 O        -8.4913261008       -2.1836261873       -3.8579525856
 C        -7.3472858016       -0.6204436079       -2.3387688846
 C        -8.3619026329        0.1438935991       -1.4411767509
 O        -8.2049468132        1.3371064160       -1.1737657308
 C        -9.4145064688       -0.6896607935       -0.7317749800
 C       -10.6000247332        0.1321432306       -0.3171237396
 C       -10.9636412086       -0.2525969347        1.1779773351
 O       -10.6369252658       -1.3079825065        1.6273534872
 C       -11.8106100050        0.9011973718        1.8506536829
 C       -10.9622914218        2.1415905677        2.1315599981
 O       -11.3169006073        3.2308681907        1.6438416626
 C        -9.5963130262        1.8537540201        2.8262790620
 C        -8.4014229419        2.2211660570        1.9252232631
 C        -7.8817159149        3.6028073778        2.3313717309
 O        -8.3501552377        4.1672269292        3.3017610157
 C        -6.6404291419        4.1784308023        1.5123910581
 C        -7.3247865894        5.3745399341        0.6074581738
 O        -8.5069819322        5.6091597255        0.6259188739
 C        -6.4259322753        6.2148452054       -0.4093696592
 C        -7.1021354845        7.5756409576       -0.6062017441
 C        -7.2031916475        8.2414975090        0.8027590218
 O        -6.3940719219        8.0837788749        1.6296650829
 C        -8.3738673928        9.2325168207        1.0211438048
 C        -9.2263904190        8.5529687090        2.2080301710
 O       -10.1877069123        7.8545359154        1.8473946857
 C        -8.9583701193        8.6521924066        3.7107036940
 C        -9.4342726628        7.4338776291        4.4475592677
 C       -10.9896826035        7.2548471626        4.5580914108
 O       -11.5089628126        6.3203237855        3.9539841694
 C       -11.9551451053        8.2616455312        5.3327306147
 C       -12.0831213732        9.4490559809        4.1746727762
 O       -11.4534331356       10.4835165035        4.3205827036
 C       -12.9930635141        9.0598072777        3.0249516801
 C       -13.2605452839        7.4838874329        5.5799466622
 C       -11.3410516060        8.9373012386        6.5620972905
 C        -7.8512298118       10.6319935460        1.4804149101
 C        -9.3160154428        9.2555720839       -0.1725604467
 C        -5.6771542472        4.8280847239        2.4871809059
 C        -5.9099755099        3.1353975123        0.6245974952
 C       -13.0798022150        1.2588638137        1.0409219683
 C       -12.4071801040        0.3598389289        3.2247084925
 C        -6.7367692824       -1.9443802486       -1.6101710023
 C        -6.0990409974        0.1656684401       -2.7357810246
 C       -10.7301152048        1.5995963250       -8.3101574919
 C       -12.8986686682        0.9020091956       -7.1816507488
 H        -9.4878872526       -0.8210101966       -9.1794751093
 H       -11.2010409500       -0.4622970847       -9.9272803292
 H       -10.4884130164       -2.1482527487       -9.5621828714
 H        -8.8331069402       -0.3280002046       -6.4045320567
 H        -9.8839546305       -1.3063598265       -5.5727862431
 H        -9.5768062782        0.5119325494       -3.6189572371
 H        -8.2449986962        0.8961714505       -4.5455829280
 H        -8.8977557303       -1.3192436694        0.0339258649
 H        -9.8262547353       -1.4710353647       -1.3617799850
 H       -11.4428730707       -0.0105337650       -0.8935643355
 H       -10.1904558076        1.1609490707       -0.4924839622
 H        -9.5099206791        0.8002386409        3.0258890410
 H        -9.4069400931        2.3360585791        3.8199810073
 H        -8.6265834205        2.3044198056        0.8964949207
 H        -7.5668543870        1.5309714951        2.0294634372
 H        -6.5455287683        5.5149260881       -1.3036947480
 H        -5.3565009817        6.2114813331       -0.0897420510
 H        -8.1034264778        7.4013684789       -1.0528891239
 H        -6.5092707385        8.2285012572       -1.2578271341
 H        -9.4558633182        9.5661426274        4.0718382916
 H        -7.8514065238        8.7841608471        3.9281885984
 H        -8.9371706028        7.3891709338        5.4482989543
 H        -9.0435946261        6.5681622447        3.8676422097
 H       -12.6726145992        8.0278216782        2.6119409884
 H       -12.9524227959        9.7601109636        2.2413040797
 H       -14.0123572008        8.9829207166        3.2916941457
 H       -13.8087655481        7.2833093907        4.6548209852
 H       -13.9977060340        8.0098752915        6.2649141368
 H       -13.1673728247        6.5227724293        6.1029977822
 H       -10.3643510816        9.3278940098        6.3854457014
 H       -11.2741589249        8.2513219149        7.3799653764
 H       -11.9040237693        9.8264120920        6.8465820334
 H        -8.6701577031       11.3391825711        1.7049973623
 H        -7.2941770363       11.1140716659        0.7222515922
 H        -7.2821009516       10.4999822425        2.4125972349
 H       -10.1926801254        9.8629520125        0.0114549185
 H        -9.7744399043        8.2750109608       -0.3101898069
 H        -8.7511917283        9.6898992747       -1.0124313509
 H        -6.1876563813        4.9335794210        3.4428447875
 H        -5.4407836085        5.8262636162        2.1286775588
 H        -4.7663450556        4.3003286795        2.8001776469
 H        -5.3656846341        2.3997820931        1.1748622087
 H        -5.1799405331        3.6422892044       -0.1034580315
 H        -6.5800633872        2.6854048307       -0.1074919478
 H       -13.6765119137        0.3978874924        0.8899540541
 H       -12.9136135213        1.7343946202        0.1300821628
 H       -13.5924307462        2.0025958896        1.5928023840
 H       -12.9177694113        1.2089228858        3.7416358571
 H       -11.7012601044       -0.0354397452        3.9191953403
 H       -13.0702815112       -0.3602396566        2.9643989442
 H        -6.1661235446       -2.3974952248       -2.3413071742
 H        -7.5715033457       -2.5909817992       -1.3543839518
 H        -6.1953274162       -1.6665812297       -0.7839490489
 H        -6.2751249234        1.2638412939       -2.7520752673
 H        -5.9227067330       -0.1050703824       -3.7450086026
 H        -5.3492318467       -0.0464207228       -2.0068152656
 H        -9.6991192839        1.3600866837       -8.5419203700
 H       -10.6488623203        2.5500890677       -7.7792022995
 H       -11.3121915675        1.5012880550       -9.2243754891
 H       -13.0408547030        1.9396758695       -6.8966971585
 H       -13.2084778843        0.2590037199       -6.3522944854
 H       -13.5018195378        0.7393961599       -8.0817792816
 Na      -10.3134361913        5.1659615590        2.1366301855
