117

 C       -10.6284128412       -1.1636215652       -9.2804458153
 C       -11.3992713649       -0.8804474039       -7.9483917999
 O       -12.0103932474       -1.7364226996       -7.4155066764
 C       -11.4171496485        0.5068156023       -7.3085366862
 C       -10.7187407453        0.6431074293       -5.8523539159
 O       -11.0818591020        1.4754128003       -5.0479931797
 C        -9.5691471097       -0.2968503776       -5.5228111793
 C        -8.7348190751        0.0933193533       -4.3084540257
 C        -8.2220504926       -1.1606358399       -3.5620250765
 O        -8.4678831687       -2.3399831156       -3.7898386819
 C        -7.2674500783       -0.6985465252       -2.3453710755
 C        -8.1877638218        0.0705846248       -1.3699962326
 O        -8.1400642276        1.3097363008       -1.2213004841
 C        -9.4366645927       -0.6320632091       -0.7433394561
 C       -10.5796897243        0.2698561109       -0.1895896578
 C       -11.0275732750       -0.1126785832        1.2199095668
 O       -10.6345978436       -1.1419790825        1.7534464424
 C       -11.9520018429        0.9142943986        1.8861322564
 C       -11.0189298864        2.0904177477        2.0575962004
 O       -11.3243827396        3.2213546811        1.6311399553
 C        -9.7104908690        1.7955300441        2.6806425024
 C        -8.5128789345        2.1801785368        1.8615344764
 C        -7.8816494433        3.5678712176        2.2089338284
 O        -8.3279381816        4.1956783702        3.1384170807
 C        -6.7263073357        4.1963801559        1.4308752992
 C        -7.2492458756        5.2904062271        0.5191174888
 O        -8.4178192877        5.6688486666        0.6792317262
 C        -6.2987681597        6.1416876412       -0.3582631325
 C        -6.9383109775        7.5407610252       -0.5866690003
 C        -7.1714836637        8.3047008574        0.8038157852
 O        -6.3368062781        7.9865393428        1.6762354700
 C        -8.3908712520        9.2310882865        1.0623842278
 C        -9.2899599989        8.5595962689        2.1933404688
 O       -10.2249801700        7.8739994567        1.8719207750
 C        -8.8999892501        8.7969952708        3.6177912986
 C        -9.4706726423        7.5892555352        4.4404471082
 C       -10.9849050909        7.2833033535        4.4466145529
 O       -11.4688619302        6.3521762072        3.8301415235
 C       -11.9085717743        8.2534768277        5.2355011537
 C       -12.1502160679        9.3466636534        4.1620909505
 O       -11.5019226775       10.3562532958        4.2542904190
 C       -13.1181911486        9.1184149413        3.0620967636
 C       -13.2567895107        7.6576095496        5.5805944206
 C       -11.3078007478        8.8532248683        6.5020383723
 C        -7.7895863840       10.5103948532        1.6034848854
 C        -9.3121217850        9.3458885093       -0.2268928811
 C        -5.7516873462        4.8465764805        2.5202099101
 C        -5.9566682304        3.0793593894        0.6866782860
 C       -13.0908359311        1.0723133366        0.9091478441
 C       -12.2982107756        0.5035468144        3.3915936127
 C        -6.7283007316       -1.9823364340       -1.6268481414
 C        -6.1259751845        0.2299973099       -2.7292298791
 C       -10.7728885459        1.5739927663       -8.3242384339
 C       -12.9492378539        0.8914592596       -7.1799051884
 H        -9.6183234427       -0.8643961445       -9.1191227535
 H       -11.1804510476       -0.6311509956      -10.0021205532
 H       -10.5222160731       -2.2312171778       -9.4733348328
 H        -8.9519797579       -0.4974092161       -6.4649190160
 H        -9.9620937824       -1.2705211876       -5.2820135643
 H        -9.4323202932        0.5806755571       -3.6208233243
 H        -8.0423744788        0.8114732678       -4.6015548313
 H        -8.9945738670       -1.3592526088        0.0069174801
 H        -9.9704336869       -1.3384456923       -1.3769446341
 H       -11.4627376163        0.2151096962       -0.8310275699
 H       -10.2167958659        1.2923035243       -0.2310457655
 H        -9.5348098828        0.7954956355        3.0637535306
 H        -9.6633132616        2.4831272339        3.5965874207
 H        -8.6658375007        2.2555366800        0.7740942911
 H        -7.7437843790        1.3945032880        2.0394962664
 H        -5.9744628952        5.5994240138       -1.2814617048
 H        -5.4065565591        6.2191706002        0.3181408852
 H        -7.9201891551        7.4366276527       -1.1026631295
 H        -6.2490732030        8.0433800740       -1.2204791818
 H        -9.3912389102        9.6971745767        4.0532610773
 H        -7.7904448822        8.9296973471        3.7259934231
 H        -9.2202919666        7.7538371052        5.4632812597
 H        -8.9602776533        6.6568615914        4.1141308347
 H       -13.0978037417        8.0771500689        2.8109898055
 H       -12.8068125492        9.7232802348        2.2062024173
 H       -14.1824938358        9.3993825801        3.2303890508
 H       -13.8776202868        7.2304459101        4.8107556801
 H       -13.8836169914        8.4113549454        6.1113901169
 H       -13.1724859257        6.9421116817        6.4046783666
 H       -10.2899520934        9.1795624607        6.4412597367
 H       -11.3428277752        8.1354468568        7.3166226910
 H       -11.8515140815        9.7473157303        6.7453287787
 H        -8.5404119292       11.0632349155        2.2080578075
 H        -7.5568877699       11.2193571334        0.8088021715
 H        -6.9324578281       10.2972017355        2.3069952527
 H       -10.0122897263       10.1252233415       -0.1305658402
 H        -9.9526915697        8.4977899783       -0.1898125544
 H        -8.6960722366        9.4477490329       -1.1030547037
 H        -6.2269818097        4.9870383864        3.4991784522
 H        -5.2701085575        5.8049134566        2.1872198766
 H        -4.9751222588        4.1173914890        2.8140840191
 H        -5.3129105672        2.4855016306        1.3531175193
 H        -5.3466419637        3.4843621761       -0.1472388664
 H        -6.6036276337        2.4285769200        0.0765556107
 H       -13.6062117731        0.1749820535        0.8066498202
 H       -12.6837988162        1.3470760580       -0.0607507737
 H       -13.7096320371        1.9282654929        1.1007682231
 H       -12.4649350353        1.3748178982        3.9210433681
 H       -11.3984090443        0.0823728226        3.8817898420
 H       -13.1170480825       -0.2220636093        3.4941813060
 H        -6.3824131002       -2.6152852239       -2.4256961816
 H        -7.5268709371       -2.4493213260       -1.1811710570
 H        -5.9498925421       -1.7257184138       -0.9010112434
 H        -6.5469718633        1.2116381877       -2.6528020036
 H        -5.8798154430        0.1379196737       -3.7465920407
 H        -5.3634901318        0.1527916281       -1.9749548576
 H        -9.7220781654        1.7692533398       -8.2159367805
 H       -11.1975425426        2.5377376708       -8.1033871799
 H       -11.0003739727        1.1031954477       -9.2995499227
 H       -13.0131902161        1.9278181072       -6.8512227619
 H       -13.4740825770        0.2734297012       -6.5200924996
 H       -13.3731944889        0.9419561999       -8.1973618336
 Na      -10.3093519396        5.1720792215        2.1960919159
