117

 C        -3.3559292400       12.7074879346        0.4574961105
 C        -4.4074969405       12.1052809525       -0.4169774710
 O        -5.5805269522       12.5129609759       -0.4760057811
 C        -3.7937687139       11.0103445017       -1.4323425170
 C        -3.5176571353        9.7775880806       -0.5579263323
 O        -2.4764155834        9.7719805994        0.1477739042
 C        -4.5174126943        8.6466011383       -0.4262763571
 C        -5.3586785275        9.0479469039        0.8208495278
 C        -6.3296564497        7.9287914119        1.3491618760
 O        -7.0859264528        7.3296200643        0.6122238614
 C        -6.5447068509        7.6395797862        2.8881666787
 C        -8.1704737865        7.2844059615        2.9824632531
 O        -8.9491261422        7.9636933263        3.6091932845
 C        -8.6187774697        5.8991957905        2.3797959892
 C       -10.0609423212        6.1082362661        1.9740181386
 C       -11.0290354173        5.0066701318        1.5445226622
 O       -10.6101905799        3.8926357577        1.3782700879
 C       -12.4921064020        5.4769248752        1.0970876593
 C       -13.3048027946        4.3379788040        0.4936252565
 O       -12.7603102483        3.6944232675       -0.3957303401
 C       -14.7129953669        3.9189600522        0.9559620883
 C       -15.2553864220        2.6721475756        0.3399655201
 C       -14.6671111845        1.4022476108        1.0266318038
 O       -13.7576282503        1.4100784031        1.8257893447
 C       -15.3094181094        0.0661973285        0.6862202759
 C       -14.2397722144       -0.4882721736       -0.4214344049
 O       -13.1938893448        0.0427665967       -0.6749964505
 C       -14.5243556017       -1.7587391063       -1.1417692476
 C       -13.1501206392       -2.4225899218       -1.5475614251
 C       -12.8792895781       -2.0819755779       -3.0019570380
 O       -13.6937469455       -1.6194694523       -3.7872548367
 C       -11.5415353494       -2.7297006600       -3.4900687478
 C       -10.4015115769       -1.8842467368       -2.7640002205
 O        -9.8906585707       -2.4185905263       -1.7742473619
 C       -10.0061635673       -0.5437707443       -3.3747689457
 C        -8.7133871456        0.0913738749       -2.6772104555
 C        -9.0800838554        0.8223921772       -1.4127299972
 O       -10.1062614378        1.4770317472       -1.3886861468
 C        -8.2447654856        0.7074909102       -0.1094741958
 C        -9.0409187884       -0.1770971630        0.9764119792
 O        -9.9235950434        0.4471216476        1.5639752373
 C        -8.5031820185       -1.5507892017        1.4671645574
 C        -6.8872376169        0.0350232895       -0.3206369455
 C        -8.1470687637        2.1222046756        0.4123988186
 C       -11.3289066397       -4.2389367199       -3.2262521544
 C       -11.4025296001       -2.5204566980       -5.0349178690
 C       -15.4097973351       -0.7572650582        2.0007063548
 C       -16.7031998749       -0.0594436657        0.0558759908
 C       -13.1925363755        6.4809537581        2.1839477322
 C       -12.2088678704        6.3816061331       -0.2565657688
 C        -5.8804792898        6.2891571299        3.2378546390
 C        -6.2372973686        8.8576143187        3.7991097550
 C        -4.8647204201       10.8380111753       -2.4952152963
 C        -2.4460016877       11.4306218594       -2.0406439928
 H        -3.6800234805       12.9948235852        1.4694464043
 H        -3.0298802899       13.5010898704       -0.2214076955
 H        -2.5467942971       11.9664763641        0.6565578894
 H        -4.0566066707        7.6173731857       -0.2101670671
 H        -5.2233583297        8.6083699045       -1.1973455828
 H        -6.1000585075        9.8383451188        0.6728517761
 H        -4.7647122191        9.3681922610        1.6921187194
 H        -8.5367041842        5.1131316230        3.2414639063
 H        -7.9285287708        5.5588727724        1.6054518616
 H        -9.9882137072        6.8353335550        1.1241424477
 H       -10.4954313125        6.6756596747        2.7996455976
 H       -15.4217408884        4.7535329490        0.7074217074
 H       -14.7834293385        3.7475756335        2.0425496333
 H       -15.1429279667        2.5510098736       -0.8041680257
 H       -16.3504432576        2.6756934266        0.5692921707
 H       -15.1178775633       -1.5170964260       -2.0332771210
 H       -15.0618357499       -2.4930034786       -0.5135461564
 H       -13.3309519633       -3.5334910936       -1.5004654927
 H       -12.4066887821       -2.0285224639       -0.7915862543
 H       -10.7425316529        0.1986433039       -3.1334444849
 H        -9.8580776344       -0.5934973830       -4.4500503502
 H        -8.3161622093        0.8009254958       -3.3831355491
 H        -7.9310351513       -0.6771097278       -2.4531246365
 H        -8.7704330522       -2.3559828821        0.7221591672
 H        -8.9452695034       -1.7821806784        2.3253963461
 H        -7.3991485204       -1.4684953374        1.3831329893
 H        -6.1592864713        0.5025419350       -0.9210731892
 H        -7.0488281461       -1.0280274598       -0.7008332008
 H        -6.3802812621       -0.0300622092        0.5778500864
 H        -9.0757018748        2.6889703929        0.2297079856
 H        -7.4840207490        2.7279055808       -0.2265118394
 H        -7.9442500478        2.2023945113        1.4984957099
 H       -12.2680206032       -4.7603578822       -3.3618085097
 H       -10.8591197677       -4.3674263233       -2.2641848779
 H       -10.6227158800       -4.5626065960       -3.9995677500
 H       -11.7857483519       -1.5193995599       -5.3156057893
 H       -11.9612484014       -3.2666205945       -5.6621701947
 H       -10.3547365430       -2.7065467246       -5.3058962190
 H       -16.1430852075       -0.2518202282        2.5761028644
 H       -14.5048225794       -0.8571222722        2.6195812509
 H       -15.6522506726       -1.7944804216        1.7837506103
 H       -17.3633543278        0.5439814601        0.6511690610
 H       -16.8818946120       -1.0698256997       -0.1524817594
 H       -16.6653175734        0.3532837877       -0.9895366303
 H       -14.2387332130        6.0971766032        2.3975448813
 H       -13.1209186164        7.4226108423        1.7106181229
 H       -12.6819379394        6.5714844132        3.0760534378
 H       -11.8026685481        5.7773870899       -1.0830694840
 H       -11.6311560994        7.3121839780       -0.1435588051
 H       -13.2123918594        6.6264896522       -0.6611873937
 H        -4.7635437786        6.3068902546        3.2985543639
 H        -6.1130728338        5.5692777700        2.4583513687
 H        -6.2138049157        5.9976146359        4.2539071425
 H        -6.9295537413        9.6181377169        3.3968090999
 H        -5.1660578091        9.0717056078        3.7160780875
 H        -6.6208514343        8.6702896566        4.8080254496
 H        -5.9173025854       10.5636580375       -2.0687621853
 H        -4.5298925122       10.0580335407       -3.2180439747
 H        -4.9614627586       11.8596135312       -2.9181902915
 H        -2.4425920603       12.0168774421       -2.9390091027
 H        -1.7978667761       10.6320649947       -2.3576751277
 H        -1.9129810021       12.0384444123       -1.2338059055
 Na      -11.6958193170        1.7278379416        0.5972089512
