117

 C       -10.6546839564       -1.2683376612       -9.0999199166
 C       -11.4884079583       -0.8974858317       -7.8747872536
 O       -12.1313215974       -1.7494748869       -7.2403482736
 C       -11.5140193727        0.5664281416       -7.3370248804
 C       -10.7995314156        0.5026259685       -5.8703447244
 O       -11.1192105806        1.3847132435       -5.0978876297
 C        -9.6706129116       -0.5034370849       -5.6083044562
 C        -8.6817281760        0.0134663340       -4.5481753965
 C        -8.1616369408       -1.1703649854       -3.6016417628
 O        -8.4220047079       -2.3256670217       -3.6948439551
 C        -7.2871371534       -0.7424420385       -2.3622367850
 C        -8.2223660092        0.0431147676       -1.2726210596
 O        -8.0529725170        1.2192696846       -1.0142356371
 C        -9.2862936785       -0.8101077351       -0.6078639580
 C       -10.5173011203        0.0862535701       -0.1956060841
 C       -10.9890272540       -0.1687753125        1.2472880097
 O       -10.5147421329       -1.0208861462        1.9214134523
 C       -12.0064680222        0.9614661951        1.8342101048
 C       -11.1761120194        2.2268520996        1.9314668373
 O       -11.4546665822        3.3422546643        1.5260254476
 C        -9.8749687004        1.9621988186        2.6657312169
 C        -8.5193481729        2.1643309397        1.7947418725
 C        -7.9045501236        3.5696521613        2.1947314163
 O        -8.4696879906        4.2796042830        3.0296012207
 C        -6.6236591760        4.1258698599        1.4786006757
 C        -7.2324829537        5.2722392269        0.5610971907
 O        -8.3383806649        5.6927847104        0.6792225921
 C        -6.1940078473        6.0541571296       -0.3351471609
 C        -6.7310511186        7.5344307481       -0.4696303744
 C        -7.0666182872        8.1687628361        0.8320649272
 O        -6.4589131012        7.9741318595        1.8239179972
 C        -8.3606415815        9.2337262021        1.0296130643
 C        -9.2710491416        8.4351579084        2.0562731704
 O       -10.2318208762        7.7740710535        1.6164300282
 C        -9.0209044815        8.5806762624        3.5544538416
 C        -9.4157179148        7.4838704964        4.5498591208
 C       -10.9403012763        7.3093979823        4.5032401966
 O       -11.4140204010        6.3798330635        3.8384519628
 C       -11.9438055206        8.3451741189        5.2050015291
 C       -12.2490400017        9.5118132195        4.0711004751
 O       -11.5016218040       10.4664655782        3.9747513920
 C       -13.3745309404        9.2898650023        3.0885367452
 C       -13.2361189092        7.5584876144        5.5306142849
 C       -11.2733380041        8.9178750929        6.3961708565
 C        -7.6849918468       10.4935519957        1.6233140242
 C        -9.0580211485        9.6521553524       -0.2902729198
 C        -5.6945088803        4.7195430702        2.5346705028
 C        -5.8750548121        3.1972339631        0.5876434043
 C       -13.4036947825        1.1674022489        1.2338375741
 C       -12.4488845360        0.4952846478        3.2145817237
 C        -6.6595180729       -1.9978399316       -1.6961393716
 C        -6.0342997651        0.1154816830       -2.8117959087
 C       -10.7180082244        1.6357640039       -8.0756907841
 C       -12.9841471975        0.9687901568       -7.0851047422
 H        -9.6330470017       -0.8501176759       -9.0731148707
 H       -11.2702467320       -1.1663849596       -9.9818381382
 H       -10.5465493051       -2.3066846505       -8.8954577009
 H        -9.2784858983       -0.9175621471       -6.5242162616
 H       -10.1298657598       -1.3986186710       -5.0561381218
 H        -9.2074632938        0.8444549127       -4.0048593502
 H        -7.8293656189        0.5181781313       -5.1562026418
 H        -8.9393383008       -1.4574898127        0.1652620521
 H        -9.7138335996       -1.5294329349       -1.3188858131
 H       -11.3157076179       -0.0760032076       -0.9287781002
 H       -10.2938162225        1.1873057773       -0.2577501538
 H        -9.7747085915        0.9554264985        3.0727363973
 H        -9.9182783828        2.5860527258        3.5321979976
 H        -8.7104382566        2.1544427002        0.6816469745
 H        -7.7994006756        1.3595625149        1.9929233660
 H        -6.2065765068        5.6694662930       -1.3211699781
 H        -5.2574621595        5.8846242616        0.0857198954
 H        -7.5661370126        7.5563290074       -1.1337359905
 H        -5.8595390900        8.0716691130       -0.9326116310
 H        -9.4716173885        9.4726335026        3.9503880412
 H        -7.9630924009        8.7311075382        3.6108902390
 H        -8.9869533368        7.7245504730        5.5488184514
 H        -9.0126434268        6.5790796747        4.1721346097
 H       -13.8644605209        8.2529682457        3.1615725707
 H       -13.1042059001        9.6303836217        2.0998836059
 H       -14.1639235489        9.9638427528        3.3349538768
 H       -13.4386622897        6.7522806672        4.8557513744
 H       -14.1560934688        8.0918749573        5.5226327650
 H       -13.2205138411        7.1940669400        6.5221028735
 H       -10.6575023118        9.8074815373        6.1542327688
 H       -10.5498228420        8.2262416233        6.8399630364
 H       -12.0252195452        9.2320891447        7.1539274859
 H        -8.3660695761       11.1342647097        2.1872211432
 H        -7.2969502857       11.1439463621        0.8371631562
 H        -6.9205933408       10.1310773704        2.2804538213
 H        -9.7837153778       10.4242413281        0.0323798140
 H        -9.6907899899        8.8102740272       -0.6308275565
 H        -8.2532001876        9.9631563068       -0.9688132713
 H        -6.1623761903        5.5646216634        3.0313398654
 H        -4.7584273087        5.0340435150        2.1444822319
 H        -5.5452144947        4.0464297472        3.3699944875
 H        -5.7326282527        2.2675047826        1.0998364185
 H        -4.9209475637        3.5147806049        0.1897822374
 H        -6.4000363925        2.9925375849       -0.3206400459
 H       -13.8659176867        0.1371412542        1.0199185316
 H       -13.4873562036        1.8135540768        0.3366211023
 H       -13.9779516984        1.7701145990        1.9836490278
 H       -12.6281126629        1.3973530322        3.9457977271
 H       -11.7511376337       -0.1747774315        3.7049820428
 H       -13.3315255736       -0.0837215542        3.0705570808
 H        -6.2827916036       -2.6891360362       -2.4851844232
 H        -7.5694280855       -2.4956974626       -1.1396110482
 H        -5.9287838588       -1.6299583106       -0.9683013026
 H        -6.3481932643        0.9437306818       -3.4756106120
 H        -5.4295916547       -0.5256405568       -3.4550212339
 H        -5.5594669043        0.3932041575       -1.8923534849
 H        -9.6744866899        1.7012982902       -7.7315705940
 H       -11.1236310339        2.5481158345       -7.6533326638
 H       -10.7898789441        1.5065140689       -9.1135439121
 H       -13.0978861122        1.7170288441       -6.3157230994
 H       -13.5803614422        0.0803164661       -6.7691938244
 H       -13.3113830324        1.4503616867       -7.9695353633
 Na      -10.1559267377        5.4066565636        2.1801675504
