117

 C       -10.6338893835       -1.2670692445       -9.0282964503
 C       -11.5426403453       -0.9405058545       -7.8085958074
 O       -12.1647573682       -1.7251271449       -7.1598563111
 C       -11.5260751597        0.5327261388       -7.2300237818
 C       -10.8094901236        0.4319891372       -5.8071599533
 O       -11.0543404681        1.3090975783       -5.0103246102
 C        -9.7697283367       -0.6247842035       -5.5601659680
 C        -8.6349717856       -0.1094622542       -4.5874666923
 C        -8.1933743999       -1.1801764815       -3.6371067226
 O        -8.5504180697       -2.3177108816       -3.8373777118
 C        -7.2150823088       -0.7186771569       -2.3223586069
 C        -8.1902725278       -0.0136417272       -1.3395679390
 O        -8.0309477823        1.1553134160       -0.9103844274
 C        -9.2549176647       -0.8378979155       -0.5911253734
 C       -10.6033595382       -0.0707138463       -0.3151824129
 C       -11.0660312421       -0.0957605381        1.2091415511
 O       -10.5470873421       -0.9480687606        1.9194634530
 C       -12.0988375983        0.9223387879        1.9096369509
 C       -11.1790183822        2.2416138465        1.9857861163
 O       -11.5018888226        3.3548716309        1.4964007628
 C        -9.8410479282        2.0908430646        2.7410417390
 C        -8.5366322491        2.2602605925        1.8957966409
 C        -7.9257929177        3.6008452308        2.1894749742
 O        -8.3519860749        4.2993369313        3.1027301324
 C        -6.6347925756        4.1360111074        1.4674119252
 C        -7.1466298095        5.4009835864        0.6318153884
 O        -8.3425112016        5.6596710807        0.6226210970
 C        -6.2156129351        6.1185612978       -0.3545296469
 C        -6.7558460894        7.6300539834       -0.5512709338
 C        -7.0661032079        8.2298490776        0.9469900316
 O        -6.4772601522        7.8616553513        1.9363821444
 C        -8.2193752560        9.2736467642        1.0448834328
 C        -9.2450516895        8.4775202589        1.9734877869
 O       -10.0854393278        7.7503642648        1.4118023528
 C        -8.9190963624        8.5225714724        3.4735098392
 C        -9.4756502155        7.4847261015        4.3755659859
 C       -11.0000976730        7.3164974294        4.4074712684
 O       -11.5315558177        6.3262378355        3.9287870558
 C       -11.8867261424        8.3538561997        5.1275101206
 C       -12.2464231944        9.4789536359        4.0137230297
 O       -11.4979629109       10.4211827013        3.9313710164
 C       -13.4884766471        9.3599446182        3.2013637970
 C       -13.1385789422        7.5514509452        5.4734573670
 C       -11.3562173646        9.1548294025        6.3942415840
 C        -7.6411022723       10.5192910765        1.7402559508
 C        -8.9458884370        9.5612014455       -0.3175903128
 C        -5.6534563149        4.6518211108        2.6265872414
 C        -5.9079983794        3.1676243759        0.5469336277
 C       -13.4028023701        1.3353018941        1.0587067339
 C       -12.4100517052        0.3710035274        3.3549729421
 C        -6.6786631618       -1.9669010814       -1.7212458337
 C        -6.0239776398        0.1300605963       -2.8109556024
 C       -10.6834489058        1.5458265781       -8.0411311062
 C       -13.0346731286        1.0292637241       -7.0719999372
 H        -9.7018349279       -0.6249294707       -8.9826983028
 H       -11.3084883671       -1.1586374884       -9.8941861319
 H       -10.3440292452       -2.3677087673       -8.9306193089
 H        -9.4044160312       -0.9535881628       -6.5235481349
 H       -10.1946413279       -1.4522195660       -5.1334943586
 H        -9.0250224786        0.7649592048       -4.0158323011
 H        -7.8262073495        0.2436670388       -5.2008296108
 H        -8.8995026464       -1.0147177878        0.4396998925
 H        -9.4578200978       -1.8308576555       -0.9397032010
 H       -11.3719339183       -0.4191998481       -0.9110124413
 H       -10.4992798925        1.0389842232       -0.5417371085
 H        -9.7344057344        1.1106786422        3.0937333898
 H        -9.9172186657        2.6857619231        3.6460905870
 H        -8.7778081929        2.1450150708        0.8751584082
 H        -7.7891025744        1.5018731358        2.0975792502
 H        -6.3130195975        5.5013389163       -1.2647569150
 H        -5.2086526218        5.9855887896        0.0391507022
 H        -7.6011202697        7.7069478991       -1.2904461584
 H        -5.8995214243        8.1877780076       -0.8982184091
 H        -9.3200057646        9.4215809445        3.8826773312
 H        -7.8169360555        8.6159638155        3.5907488607
 H        -9.1116740404        7.7483064105        5.3894116719
 H        -9.0594269745        6.4969866576        4.0620746683
 H       -13.9802182267        8.3772166674        3.2946684171
 H       -13.1991556363        9.6184059286        2.2061080195
 H       -14.2300338297       10.1150322536        3.3899941918
 H       -13.4165591736        6.7984833472        4.7907782129
 H       -14.0917701166        8.1274164494        5.5340350294
 H       -13.0555776184        7.1121822130        6.4489293680
 H       -11.0470446652       10.1709407255        6.1900319095
 H       -10.4249067394        8.7074073883        6.7745584497
 H       -12.1210386195        9.1561593999        7.1999507265
 H        -8.4070749300       11.2675843392        1.8552602820
 H        -6.8879510197       10.9399996239        1.1673552226
 H        -7.2225159265       10.2368585694        2.7012298645
 H        -9.8686821185       10.0831922705       -0.0287156746
 H        -9.2772612398        8.5438361894       -0.6981126031
 H        -8.2335803205       10.0897735361       -1.0094994296
 H        -5.7751984198        5.6715171799        2.8878612796
 H        -4.6342414890        4.5493180335        2.3116678425
 H        -5.7644590089        4.1291623603        3.5523738323
 H        -5.8761391320        2.2365518862        1.0185022119
 H        -4.8555171436        3.4228766606        0.2723890882
 H        -6.3286821710        2.9808104362       -0.4161918150
 H       -13.9895835264        0.4703089105        0.8039897821
 H       -13.2166605211        1.9339142204        0.1420438967
 H       -13.9847441688        2.0328800204        1.6986426536
 H       -12.8182573581        1.1064286773        4.0399570991
 H       -11.5106339959       -0.0842517679        3.8187613578
 H       -13.0816864988       -0.4527802356        3.2443838875
 H        -6.1319733513       -2.5274552983       -2.4899753071
 H        -7.5768104745       -2.5057686988       -1.4902496257
 H        -6.1056197346       -1.7497890612       -0.8008958421
 H        -6.2597859470        0.7632306734       -3.7086312254
 H        -5.3071577972       -0.6006101175       -3.1604739521
 H        -5.6276928886        0.6450765634       -1.9199434940
 H        -9.6508246685        1.3070287186       -8.1494374759
 H       -10.7593054660        2.4487356722       -7.4405589594
 H       -11.2073430128        1.6451076121       -9.0089920703
 H       -13.0983825838        1.7960779286       -6.2929687941
 H       -13.7152936418        0.2488431819       -6.7795867057
 H       -13.2825662609        1.5717042562       -8.0215213298
 Na      -10.2001307688        5.4596631978        2.0575630527
