117

 C       -10.7165986054       -1.3059591009       -8.9119268371
 C       -11.5504122425       -0.9645534528       -7.7082015445
 O       -12.1934331115       -1.8457634186       -7.2051837728
 C       -11.5395752684        0.5685553640       -7.1394504186
 C       -10.8395005050        0.5198968008       -5.7583202234
 O       -11.0246413029        1.2683072797       -4.8253889803
 C        -9.8195094171       -0.6429180071       -5.5376894950
 C        -8.6348346024       -0.1172631936       -4.6645835135
 C        -8.2052099321       -1.1376156025       -3.6682047753
 O        -8.5192898572       -2.3340886848       -3.7177451615
 C        -7.3384419052       -0.8451821479       -2.3786341828
 C        -8.1976319718       -0.0511053547       -1.2585371569
 O        -7.9152266784        1.1094089839       -1.0245478087
 C        -9.3389288234       -0.8276035063       -0.5360772801
 C       -10.6898852434       -0.1219607209       -0.3573658194
 C       -11.1284495074       -0.1092439459        1.1102148826
 O       -10.5942694139       -0.8708574189        1.8950435526
 C       -12.0232307455        0.9799421282        1.8746624134
 C       -11.1416556439        2.2351862825        2.1059586810
 O       -11.4703670167        3.2849636126        1.5524807607
 C        -9.8065408274        2.1300932847        2.8483925823
 C        -8.6069173572        2.3569693983        1.9686102244
 C        -7.8660331089        3.6585691429        2.3212161103
 O        -8.2776892468        4.3936355765        3.1976605761
 C        -6.6305376094        4.1631251378        1.4816501746
 C        -7.1397500812        5.4033091469        0.5830657447
 O        -8.3378862200        5.6784881375        0.5528821460
 C        -6.1557441823        6.2294192037       -0.2813786859
 C        -6.6691668291        7.6379127979       -0.3987690841
 C        -7.0034579350        8.2332009271        0.9066446141
 O        -6.4559563059        7.7460527720        1.9033167993
 C        -8.1369332529        9.2558191587        1.0503910019
 C        -9.1245246911        8.4699617666        1.8794004785
 O        -9.9441060257        7.7561938937        1.3843918422
 C        -8.8715332139        8.5762023408        3.3979172434
 C        -9.5096673702        7.4539843192        4.2780992436
 C       -11.0302346524        7.2890252000        4.3924310101
 O       -11.4931167027        6.3084648426        3.8491641488
 C       -11.9799309183        8.3348876221        5.0762551623
 C       -12.2548140290        9.4597144700        3.9545901679
 O       -11.4596169909       10.3650441070        3.8470015358
 C       -13.5868637028        9.4009556206        3.2306661027
 C       -13.2559833065        7.6615805591        5.6318943524
 C       -11.3879118448        9.1716709066        6.2716258551
 C        -7.6665064027       10.5917839601        1.7369668499
 C        -8.8399714781        9.5797277217       -0.3010519469
 C        -5.6232174441        4.6432438627        2.5984297282
 C        -6.0044252317        3.1134907727        0.5511732261
 C       -13.1823142491        1.3732879029        0.9658935818
 C       -12.3846103769        0.4296349483        3.2111068701
 C        -6.7438028099       -2.1509915731       -1.6861119453
 C        -6.1861533375        0.2413442913       -2.8225517970
 C       -10.6775335857        1.5138599768       -8.0547593303
 C       -12.9442072472        1.0422953137       -7.0535234960
 H        -9.8267941674       -0.6720963876       -8.8404281743
 H       -11.4379964492       -1.0390755995       -9.7389232217
 H       -10.4754065719       -2.4231884261       -8.9639400088
 H        -9.4240907468       -0.9714875202       -6.4835292490
 H       -10.2571767162       -1.4715293979       -5.0592932418
 H        -8.9564094256        0.7402490482       -4.1066308945
 H        -7.8925071116        0.1788337168       -5.3171227789
 H        -9.2169094627       -1.1770914503        0.5270721777
 H        -9.5115738377       -1.7645577537       -1.0986163768
 H       -11.4621975660       -0.6914351644       -0.9094711063
 H       -10.7595480883        0.8741219307       -0.7041542150
 H        -9.6249004144        1.2084436549        3.3923386404
 H        -9.8206693171        2.9104507872        3.6354956042
 H        -8.8490150304        2.2816972575        0.9458872251
 H        -7.8560539335        1.5984385817        2.1219422160
 H        -6.2061410235        5.7760193556       -1.3153977740
 H        -5.1271504975        6.0493202767        0.1800336999
 H        -7.6388047136        7.5723425842       -0.9496220680
 H        -5.9381375853        8.2344965065       -0.9174790362
 H        -9.2375011398        9.5660172405        3.7801732388
 H        -7.7652227919        8.5994055939        3.5746247213
 H        -9.1033543780        7.5981604050        5.2795558705
 H        -9.1201175472        6.4798593861        3.8556761310
 H       -14.0382884036        8.5027340617        3.3156756796
 H       -13.4267157050        9.7323275132        2.2002204819
 H       -14.3192299914       10.1706295800        3.5595924944
 H       -13.9046212092        7.1362754231        4.9009015678
 H       -13.9965523315        8.3366738120        6.0703029216
 H       -13.0199806627        6.9141257974        6.4235864909
 H       -11.1144555996       10.1821234928        6.0076719927
 H       -10.4246784030        8.7732602764        6.6000815075
 H       -12.0562106935        9.1818531439        7.1077355637
 H        -8.4418689042       11.2981516248        1.5517346301
 H        -6.7635016230       10.9353995380        1.2202120791
 H        -7.4065825850       10.5366953302        2.7769816084
 H        -9.7119236599       10.2186890411       -0.0591384775
 H        -9.1230452810        8.6293196600       -0.7785971958
 H        -8.0404904492       10.0634762044       -0.8718396673
 H        -5.5486493335        5.6919809219        2.8370545368
 H        -4.6140083118        4.3132123592        2.3407525160
 H        -5.8224619524        4.1228724583        3.5185060213
 H        -5.7813174084        2.1358094292        1.0314340079
 H        -5.0928115810        3.4501148643        0.1207650202
 H        -6.5931731164        2.8252339311       -0.3399768162
 H       -13.7555690582        0.4996842523        0.8679670547
 H       -12.8641596230        1.6965849414       -0.0169799152
 H       -13.8004509647        2.1399694099        1.3677834968
 H       -13.0596165358        1.0027605422        3.7151115363
 H       -11.5035502374        0.2682475944        3.8082857082
 H       -12.8297273679       -0.5889662118        3.0916359361
 H        -5.9010362803       -2.4478667023       -2.2707562996
 H        -7.4009966561       -2.9236552310       -1.5885096648
 H        -6.3876226159       -1.7611833216       -0.7440136894
 H        -6.5002953492        0.8822539133       -3.6270344425
 H        -5.2883007890       -0.3278178914       -3.1327049839
 H        -5.9628105618        0.7414368216       -1.8606638605
 H        -9.8156440045        0.9715257935       -8.4363741704
 H       -10.3826419922        2.3940950472       -7.4685642765
 H       -11.3578706263        1.8100716635       -8.8953707906
 H       -12.9209572097        1.8919996396       -6.3396254549
 H       -13.6001203753        0.3187191248       -6.6042411556
 H       -13.2919035268        1.4590212543       -8.0269098092
 Na      -10.3573471392        5.4163595758        1.9715825849
