117

 C       -10.8598845785       -1.3864114388       -8.9127893365
 C       -11.6459794393       -0.9394988249       -7.6461250938
 O       -12.3220793809       -1.7462962679       -7.0680310483
 C       -11.4894523542        0.4457086303       -7.0772226060
 C       -10.8117006054        0.4168543825       -5.6586824539
 O       -11.1610643472        1.2360497298       -4.8323780759
 C        -9.7285841083       -0.5751976890       -5.4787845025
 C        -8.5978799180       -0.2429282505       -4.5212765064
 C        -8.2374629201       -1.3428474835       -3.5276260377
 O        -8.6929404306       -2.4642355371       -3.6240979722
 C        -7.3023917533       -0.8396396815       -2.3663513886
 C        -8.3513271949       -0.1039801856       -1.2882140804
 O        -8.3045920897        1.0837619399       -0.9265191971
 C        -9.4574940644       -1.0216524312       -0.8172055122
 C       -10.6326810131       -0.0645611274       -0.3102476410
 C       -10.9182794570       -0.1417101270        1.1723794734
 O       -10.4134330457       -1.0195814642        1.8596247684
 C       -11.9013191977        1.0535096670        1.7521078673
 C       -11.0522086894        2.3293609500        2.1596091973
 O       -11.3727039204        3.3967924879        1.6256425989
 C        -9.8070314258        2.1860183489        2.9562219441
 C        -8.5210654563        2.4907614339        2.1426338275
 C        -7.8859610194        3.8464317931        2.4603243060
 O        -8.3597004155        4.6057504372        3.3017555468
 C        -6.6575560013        4.1893428924        1.5531516459
 C        -7.1659762919        5.3226906712        0.6644060170
 O        -8.3158237554        5.6136254733        0.3926535120
 C        -5.9686032548        6.1166575950       -0.1128981072
 C        -6.4329220626        7.5694051532       -0.3903696406
 C        -6.9579592307        8.2935616814        0.9246003730
 O        -6.3478297954        7.9701316554        1.8933690401
 C        -8.0549649913        9.3324704270        1.0054755079
 C        -9.0816962809        8.5167013665        2.0251191139
 O        -9.8135869431        7.6686658386        1.4759401452
 C        -9.0132959841        8.6768483407        3.5074307791
 C        -9.6501954325        7.4690680183        4.2679603294
 C       -11.1775804115        7.3174883211        4.2990359805
 O       -11.7335063420        6.4413893164        3.6341519245
 C       -11.9774786650        8.3583550382        5.0413736267
 C       -12.3366122226        9.4225820465        3.8868509365
 O       -11.4906774041       10.1588857317        3.4516585150
 C       -13.7383092154        9.4948859254        3.2191973535
 C       -13.2253971888        7.7284844638        5.5969031100
 C       -11.0684331774        8.9825510486        6.2179680526
 C        -7.5336618037       10.5894297944        1.6388242198
 C        -8.6431039544        9.6722378742       -0.3576641371
 C        -5.4154194552        4.7311576915        2.3644800704
 C        -6.2152360437        2.9841435495        0.6420977094
 C       -12.9216151694        1.4120265939        0.6358975443
 C       -12.6146441208        0.5467009878        2.9968288829
 C        -6.7067587555       -2.1030108037       -1.6505828575
 C        -6.2488498564        0.1341622550       -2.7738878966
 C       -10.6381973640        1.4515908354       -7.9608383854
 C       -12.9502950423        1.0437435282       -6.8573558031
 H        -9.8452318273       -1.4533146363       -8.5680699522
 H       -10.9580693832       -0.7041162801       -9.6889854762
 H       -11.3509277156       -2.2661143121       -9.1840679861
 H        -9.3229699923       -0.8367344925       -6.4975007783
 H       -10.2570649266       -1.5185695678       -5.0574035732
 H        -8.8626443244        0.7158377534       -4.0360976946
 H        -7.6823540822       -0.0513490545       -5.1796261310
 H        -9.2084498315       -1.7500651366       -0.0390371917
 H        -9.7584496340       -1.5855359291       -1.7167681500
 H       -11.5267160217       -0.1424303555       -0.9278430651
 H       -10.2697349157        1.0239707266       -0.4709420174
 H        -9.7936773504        1.1299240937        3.2947716219
 H        -9.6817391001        2.7989249305        3.8776798102
 H        -8.7147879458        2.4887320284        1.0138304923
 H        -7.6975417297        1.7334758345        2.2688840404
 H        -5.8940744007        5.5431340252       -1.0154030024
 H        -5.0527672796        6.0278326826        0.3755886843
 H        -7.2044366986        7.5486362010       -1.1298451646
 H        -5.5988105782        8.2235238908       -0.6880787328
 H        -9.4639437922        9.6618773704        3.6805215281
 H        -7.9734173439        8.7654570503        3.8421048784
 H        -9.3091283428        7.5781158316        5.3017901822
 H        -9.1493940903        6.6278844866        3.8679619187
 H       -14.0899600897        8.4431503469        2.8924674380
 H       -13.8478124680       10.2549402091        2.4528820420
 H       -14.5007780254        9.7598821504        3.9393955321
 H       -13.9095121661        7.3993127197        4.8299112390
 H       -13.8752570940        8.4014969112        6.1787058096
 H       -13.0368768971        6.8385348958        6.1705536361
 H       -10.2326887014        9.5189557644        5.8050557392
 H       -10.6700766590        8.2735009308        6.9284554824
 H       -11.6908267471        9.6643649399        6.8105635125
 H        -8.3927158596       11.2163702058        2.0263862406
 H        -6.9319443729       11.1199552317        0.9022993622
 H        -6.7865710002       10.3165040624        2.4321578107
 H        -9.0718688892       10.6114349303       -0.1767030675
 H        -9.2627173813        8.8466629170       -0.6304576060
 H        -7.8575941197        9.7626193780       -1.0663455142
 H        -5.6660908539        5.7734502823        2.6607025856
 H        -4.4708359538        4.8072351784        1.7998587228
 H        -5.0923008893        4.1512814100        3.2735627228
 H        -5.6210896377        2.2637671210        1.1668901637
 H        -5.4907419023        3.3299369817       -0.1739037014
 H        -6.9520346473        2.3761865507        0.1373232178
 H       -13.6624553337        0.6015380165        0.5386995610
 H       -12.3822082864        1.5824024532       -0.2914621300
 H       -13.5331380408        2.2694371735        0.9988684426
 H       -13.5726852843        1.1327739386        3.1694503595
 H       -11.9647914745        0.5546340055        3.8966200442
 H       -12.9812022343       -0.4425946564        2.8993735396
 H        -5.7706285195       -2.4391256161       -2.1218823943
 H        -7.4868124265       -2.9118102221       -1.6951608977
 H        -6.4835641291       -1.8244188257       -0.6139453899
 H        -6.6792789118        1.1537777205       -2.7615244535
 H        -5.8049328138       -0.1709296678       -3.6845251108
 H        -5.4956285710        0.0116810491       -2.0333197187
 H        -9.5890924490        1.1368384197       -7.9175809155
 H       -10.8955166059        2.4399689830       -7.5334476031
 H       -11.0056895693        1.4872017134       -8.9865803155
 H       -13.0006645397        2.0621605730       -6.5137425780
 H       -13.3544060459        0.4226185739       -6.0466998519
 H       -13.5830791939        0.8423883173       -7.7081216285
 Na      -10.4396732674        5.4009617355        1.9037650788
