117

 C       -11.1866154139       -1.5425440448       -8.8903294987
 C       -11.8364104842       -1.0020416346       -7.5118173952
 O       -12.5221246038       -1.8118033848       -6.9148108285
 C       -11.5373866541        0.4120248961       -6.9919524044
 C       -10.7727240296        0.3683626839       -5.5946458079
 O       -11.1157105209        1.0843458328       -4.6677820077
 C        -9.5823371022       -0.6485997513       -5.5342855511
 C        -8.5779276947       -0.2966652036       -4.4034478110
 C        -8.2371382025       -1.4353761784       -3.4310094599
 O        -8.7894722757       -2.4995521438       -3.5249352900
 C        -7.3553287906       -0.9144403362       -2.1731343121
 C        -8.3610079236       -0.2036486924       -1.2588976567
 O        -8.3069927485        1.0036849959       -1.0362114542
 C        -9.4819649695       -1.1193325595       -0.7213638851
 C       -10.7796729984       -0.3651903031       -0.4468690719
 C       -10.9289792932        0.0560993172        1.0843650484
 O       -10.2869974498       -0.5876121143        1.9145190336
 C       -11.9243286400        1.1858940087        1.6293471502
 C       -10.9612018466        2.4662172259        2.0439593917
 O       -11.1626998461        3.5687847722        1.5704965720
 C        -9.9008037541        2.2076234049        3.0461511048
 C        -8.4481467120        2.2384381815        2.4931035479
 C        -7.8913712317        3.6715455624        2.4100613420
 O        -8.4043171866        4.5475330894        3.1117840576
 C        -6.7148125185        4.0849732094        1.5752817263
 C        -7.0999841511        5.1956859738        0.6003921568
 O        -8.2479308505        5.5122515591        0.4071908743
 C        -6.0106713184        6.0428418498       -0.1987670881
 C        -6.5382631083        7.5295460070       -0.4466657419
 C        -6.6799372082        8.3481961892        0.9719159138
 O        -5.9272155636        8.1361059676        1.8746121015
 C        -7.9485457013        9.3610609809        1.1168978426
 C        -8.9535695440        8.4477997908        1.8986052478
 O        -9.7825580331        7.8039408993        1.2364078059
 C        -8.8880305681        8.4843613957        3.4330232435
 C        -9.5589210571        7.3690770173        4.3332613904
 C       -11.0503258921        7.4743308406        4.0741740300
 O       -11.6357093639        6.7255098271        3.2518411633
 C       -11.9834977020        8.4285237355        4.8842107549
 C       -12.5597619808        9.4620175670        3.7645034457
 O       -11.7330305859       10.2365175127        3.3462946233
 C       -13.9445044563        9.6112631092        3.3332843699
 C       -13.1177836938        7.5781744572        5.4782317270
 C       -11.2341440992        9.3116415102        5.9077906735
 C        -7.6570910786       10.7118654271        1.7886618553
 C        -8.5988406275        9.7987209570       -0.2553002872
 C        -5.6984636581        4.6202702716        2.6791751826
 C        -6.0135936412        3.0194036555        0.7030318187
 C       -13.0024621300        1.5898813344        0.5893953698
 C       -12.7443316317        0.5115829276        2.8137844188
 C        -6.7899037113       -2.2653421654       -1.5618364156
 C        -6.1294434428        0.0521575150       -2.5609456228
 C       -10.7396261591        1.3865734350       -7.9433036487
 C       -12.9599224656        1.1639906180       -6.7894580752
 H       -10.2998590076       -2.1325400962       -8.5230257693
 H       -10.7378066767       -0.7461381490       -9.5396509522
 H       -12.0585827975       -2.0026431353       -9.3821195252
 H        -9.1226313113       -0.7993912048       -6.4446517525
 H       -10.0792712643       -1.5937662361       -5.2438882906
 H        -9.1126652996        0.4046728533       -3.8432231140
 H        -7.7138378812        0.2265789282       -4.7881588489
 H        -8.9683468759       -1.5380727817        0.1723272343
 H        -9.7569372698       -1.9764947229       -1.4391404612
 H       -11.6155796897       -1.0974836155       -0.6556034960
 H       -10.9071592480        0.3249089509       -1.2082896825
 H        -9.9853511965        1.2192534854        3.5443366289
 H        -9.9948090118        2.9657358936        3.8134877111
 H        -8.4347024984        1.8034570077        1.5134107705
 H        -7.8260371258        1.6246755067        3.0795032679
 H        -5.7691615722        5.5062242902       -1.1906471011
 H        -5.0230253271        6.0045939416        0.3522868057
 H        -7.4451526132        7.5857367189       -0.9970118826
 H        -5.7346692169        8.0894182483       -1.0195412425
 H        -9.2860832864        9.5077328784        3.7546838452
 H        -7.8298805694        8.5640838113        3.6880223223
 H        -9.3157189955        7.5618101549        5.4059052216
 H        -9.1602892853        6.4019853061        4.1169900560
 H       -14.3229147818        8.7704406593        2.6585422555
 H       -13.9861223390       10.5163513594        2.8037379974
 H       -14.6134154730        9.6616724095        4.1241922380
 H       -13.6626149765        6.9554066893        4.7377882751
 H       -13.8685573920        8.1570417723        5.9965102502
 H       -12.7598496404        6.7811937866        6.1406961895
 H       -10.1713363694        9.3812903161        5.6313870012
 H       -11.3196374117        8.9423173414        6.9227530271
 H       -11.6232428771       10.3345907606        5.9626414755
 H        -8.6269407696       11.1127290132        1.9489758171
 H        -7.0109185358       11.3374599094        1.2004706246
 H        -7.2365700900       10.5676870160        2.7389776858
 H        -9.4972722083       10.3751590755        0.0274301325
 H        -8.6700957113        8.8859705190       -0.8269838751
 H        -7.8931182493       10.5065037862       -0.7227107460
 H        -6.2267111899        5.3105660336        3.3088863787
 H        -4.8084066423        5.0990001030        2.3960544305
 H        -5.3933124519        3.7633725019        3.2348760966
 H        -5.9432151506        2.0192295721        1.1094874159
 H        -4.9793739531        3.3119778684        0.5537625182
 H        -6.5023826669        2.7996487700       -0.2241680574
 H       -13.3711002613        0.6988715088        0.0860050835
 H       -12.5243760102        2.1952667104       -0.0951992716
 H       -13.8224242025        2.0167343851        1.0948093374
 H       -13.1894076685        1.3520522446        3.4489285163
 H       -12.1727734140       -0.0957173643        3.4402175340
 H       -13.6106925678        0.0475404417        2.4999372300
 H        -6.2904890643       -2.7461186940       -2.3501362956
 H        -7.6131173495       -2.9336308864       -1.2002123211
 H        -6.1062441390       -2.0968139707       -0.8032151290
 H        -6.4996367599        0.9927366622       -2.0854005039
 H        -6.0191594437        0.1077434504       -3.6542436149
 H        -5.1472351952       -0.2298901078       -2.1967498151
 H        -9.8890513799        0.8679444912       -8.3950758697
 H       -10.5294871259        2.3436714455       -7.4589683859
 H       -11.3923444727        1.6872305058       -8.7118453916
 H       -12.7875292247        1.9234152603       -6.0284748613
 H       -13.7759141098        0.4678338622       -6.4335514788
 H       -13.3823906030        1.5082254507       -7.7028232798
 Na      -10.1359633342        5.4538584559        1.9277464246
