117

 C       -11.5558500614       -1.5473283382       -8.8231778060
 C       -11.9891826102       -1.1237572702       -7.3848917760
 O       -12.6893974108       -1.8241875359       -6.6644138357
 C       -11.6117866608        0.3686359410       -6.8724823231
 C       -10.7715186875        0.2619710428       -5.5555612310
 O       -11.0123464181        0.9124162829       -4.5517685500
 C        -9.5762100430       -0.6419853161       -5.5257469065
 C        -8.5168665523       -0.1939238320       -4.4205888583
 C        -8.2415400202       -1.4070230769       -3.5334826893
 O        -8.6975038665       -2.4968006291       -3.7344580422
 C        -7.4247814682       -1.1573025201       -2.1853743353
 C        -8.4188394736       -0.3764539241       -1.1591014414
 O        -8.3064261780        0.7529337676       -0.7479510829
 C        -9.5890285957       -1.2577260739       -0.6767581476
 C       -10.8049631149       -0.3840775572       -0.3422616294
 C       -10.8659937959        0.1399495098        1.1166189519
 O       -10.0238025437       -0.2788058059        1.8682451436
 C       -11.9082138562        1.2644242298        1.6072221749
 C       -10.9574782699        2.4504771263        1.9440938630
 O       -11.0312016720        3.5086130294        1.3479045990
 C        -9.9048944800        2.1818776276        3.0134906396
 C        -8.5087182271        2.1794372258        2.3406256272
 C        -7.9361549556        3.5891060709        2.4821498022
 O        -8.5282843398        4.4171392789        3.1430006406
 C        -6.6844417155        4.0133587419        1.6572752593
 C        -7.1021462892        5.1797079406        0.6847720731
 O        -8.2706894949        5.3972949683        0.4263385283
 C        -5.9923407851        6.1024081502        0.1216584006
 C        -6.6672665093        7.4596423587       -0.3240767146
 C        -6.6175406385        8.4229015059        0.9148578406
 O        -5.7107736846        8.4049135129        1.7385040416
 C        -7.7984558898        9.4298545221        1.0606931596
 C        -8.8257252447        8.5212728785        1.8509171825
 O        -9.5922461142        7.7881808814        1.2446086431
 C        -8.7155049382        8.5584033984        3.3813882847
 C        -9.5102863648        7.5650284580        4.1841924052
 C       -11.0590093229        7.6207896843        3.9611275689
 O       -11.6330374894        6.7842988100        3.2160093199
 C       -12.0265654660        8.6058353013        4.7491691193
 C       -12.6491444648        9.6234117053        3.6550872017
 O       -11.9219965248       10.4287260264        3.1264712106
 C       -14.1440520101        9.5161545495        3.3521461537
 C       -13.1547172975        7.7058743313        5.2300834424
 C       -11.3855921649        9.3970224189        5.8872908325
 C        -7.1994326621       10.6300638625        1.8155510655
 C        -8.5631140801        9.8430623638       -0.2744700267
 C        -5.6863484023        4.5286919526        2.7810960443
 C        -6.0575616960        2.8429045218        0.8724225569
 C       -12.8655571151        1.7009497384        0.4183197780
 C       -12.7499843837        0.8180824159        2.7663382977
 C        -6.9841441719       -2.4195639207       -1.4992025436
 C        -6.2242168572       -0.0476010212       -2.4364648517
 C       -10.6861757891        1.2200416103       -7.8895754402
 C       -12.9201530928        1.1568255324       -6.6871119931
 H       -10.5252228532       -1.7559160079       -8.7060650707
 H       -11.5859001715       -0.7568364094       -9.5828211111
 H       -12.2335000337       -2.3238647106       -9.0018474429
 H        -9.0676950757       -0.7537394432       -6.4688194844
 H        -9.8917842217       -1.6630934343       -5.2516429365
 H        -8.9466607373        0.6597310480       -3.7396291396
 H        -7.5594521089        0.2423452209       -4.7962947227
 H        -9.4475210223       -1.7613726360        0.2520348724
 H        -9.8122771569       -1.9796277005       -1.4619058254
 H       -11.6984079981       -1.0936000697       -0.4925805407
 H       -10.9772922137        0.3985920263       -1.0140604665
 H       -10.0015698119        1.1968426975        3.4972131667
 H        -9.9418002341        2.9618550013        3.7643500661
 H        -8.5708817308        1.8820519403        1.2770297268
 H        -7.8413175554        1.4198134623        2.8286743537
 H        -5.4741270667        5.6061382276       -0.6550746988
 H        -5.2278874019        6.2291259544        0.8769783680
 H        -7.6793843363        7.3672985416       -0.6954973797
 H        -6.0950521749        7.9134054383       -1.1591933823
 H        -8.8243988434        9.5390235447        3.8241321441
 H        -7.6745510971        8.3245812373        3.5201037524
 H        -9.2429934322        7.6034924300        5.2590477311
 H        -9.2413361643        6.5525879118        3.8618062552
 H       -14.4533944059        8.4426276142        3.1561138132
 H       -14.4870758448       10.0380273421        2.4683549874
 H       -14.7090236840        9.8173679889        4.2413211261
 H       -13.4890749856        7.0534419888        4.4026147998
 H       -13.9554799419        8.2939879719        5.5606495955
 H       -12.9846728941        7.0123569287        6.0501163311
 H       -11.1707540536       10.4391640370        5.6005463720
 H       -10.5103416795        8.8558224917        6.2480781252
 H       -12.0779451148        9.4611867656        6.7050617171
 H        -7.9458134511       11.1577431666        2.4343994866
 H        -6.8546710661       11.2947795279        0.9557509854
 H        -6.3918868932       10.3122036072        2.4544798555
 H        -9.2898747392       10.6500180085       -0.0305060842
 H        -9.1763982066        8.9823778842       -0.4884306246
 H        -7.8305142191       10.1427588724       -1.0001974845
 H        -5.8638848102        5.5018191637        3.3054392481
 H        -4.6740216338        4.6341500458        2.3413370423
 H        -5.5946299732        3.6897466531        3.4944593043
 H        -5.4526342646        2.1859044761        1.5603521305
 H        -5.3508613272        3.1587337873        0.1630115064
 H        -6.7413878031        2.1377510294        0.3708525550
 H       -13.6799552986        0.8809124088        0.3874471643
 H       -12.3368068702        1.7619222583       -0.5568699612
 H       -13.2665118244        2.7105291461        0.6565821883
 H       -13.2881157189        1.6383724984        3.3762491944
 H       -12.1616913599        0.3123078406        3.5078190430
 H       -13.5125073663        0.1330957365        2.3462602021
 H        -6.1017620486       -2.8744298771       -2.0154768638
 H        -7.8051221019       -3.2334543786       -1.4031574675
 H        -6.6626704141       -2.2043552723       -0.4577643632
 H        -6.6068884925        0.7642031841       -3.0136623628
 H        -5.3266763305       -0.5027855130       -2.9251741126
 H        -5.9254730264        0.3887801047       -1.4745347991
 H        -9.6236522796        0.8664138464       -8.0516331037
 H       -10.6598058897        2.2440075548       -7.4847908385
 H       -11.1830471790        1.2987701767       -8.8551486126
 H       -12.6190096954        2.1128817329       -6.2749920797
 H       -13.7252082873        0.7392206573       -6.0697150727
 H       -13.3580416239        1.2614764865       -7.6499173380
 Na      -10.1922122903        5.4846660311        1.7986421141
