117

 C       -12.4992214318       -1.5818986908       -8.3641950690
 C       -12.1583285053       -1.2177933312       -6.8890908451
 O       -12.3911163322       -1.9418891116       -5.9712625034
 C       -11.6113618000        0.3087382726       -6.6166620196
 C       -10.7079634645        0.3812311819       -5.3768462691
 O       -10.9356593601        1.0114425550       -4.3635324385
 C        -9.4690203523       -0.5758518701       -5.4030243512
 C        -8.5217486347       -0.3256024573       -4.2257471734
 C        -8.1862638818       -1.5847852156       -3.3905147244
 O        -8.3372338852       -2.7229336927       -3.8321935506
 C        -7.6002544792       -1.3983194420       -1.9721863694
 C        -8.6178220974       -0.7669227886       -1.0220051826
 O        -8.3397294330        0.2006476219       -0.3623932918
 C       -10.0696116095       -1.4326664272       -1.0602885929
 C       -11.1121783535       -0.2876500406       -0.6067093907
 C       -11.0454980956        0.0707442443        0.8724615159
 O       -10.3019490019       -0.4174476061        1.7378161499
 C       -11.9829086773        1.2752054858        1.3887841073
 C       -11.0561679842        2.4641831667        1.7384245527
 O       -10.9552082202        3.5091139667        1.0823655962
 C       -10.0788244630        2.2121796447        2.9566196049
 C        -8.5691170852        2.2565455658        2.4866981698
 C        -7.9810038474        3.6747256964        2.5326662207
 O        -8.4953510136        4.5351740180        3.2306975250
 C        -6.6892812027        4.0262029952        1.8023360172
 C        -7.0346490342        5.1014307929        0.6623856528
 O        -8.1973860753        5.1569828481        0.2411523531
 C        -5.8472665514        6.0157753650        0.0852815210
 C        -6.2393250759        7.4270681789       -0.4479592189
 C        -6.3038013643        8.4353992944        0.7196371953
 O        -5.4157932910        8.3994724795        1.5089311553
 C        -7.4568451339        9.4775094752        0.9620396358
 C        -8.6153924654        8.7269189103        1.6923230067
 O        -9.0418123775        7.7051826283        1.1745709694
 C        -9.1205984715        9.3670609830        2.9397834292
 C        -9.6447316756        8.3047782098        4.0480339177
 C       -11.1016861149        7.8116057719        3.9570970989
 O       -11.4278816030        6.7306829586        3.4390097197
 C       -12.2177826867        8.7248869702        4.5791571620
 C       -12.7618448974        9.7014379422        3.3703550156
 O       -12.0452156612       10.6120778993        3.0504628972
 C       -14.1158317901        9.4885244184        2.8171246533
 C       -13.3268836299        7.7735634681        5.1690090324
 C       -11.6440178255        9.7109175856        5.6092403201
 C        -6.8990267193       10.5666355619        1.8532680577
 C        -7.9736566662       10.0618265865       -0.3983149668
 C        -5.6413251436        4.5545443663        2.9209165224
 C        -5.9589948813        2.8938580040        1.0310139168
 C       -13.0211816781        1.7702163209        0.3308030510
 C       -12.7333100232        0.8631946609        2.6384207622
 C        -7.0257118914       -2.7231010155       -1.5003097860
 C        -6.3870982069       -0.3642166768       -2.1830249133
 C       -10.8304431209        0.8121340316       -7.8561670763
 C       -12.7923513594        1.1836823033       -6.3903689421
 H       -12.2664571323       -0.8781001290       -9.1909440717
 H       -13.6221278940       -1.8310170536       -8.2739679106
 H       -11.9084676258       -2.4812072223       -8.6526206450
 H        -8.8393389085       -0.3927767333       -6.3029294198
 H        -9.7217343173       -1.6074845471       -5.4998331527
 H        -8.9819733730        0.4170319598       -3.6063553179
 H        -7.6330377082        0.0815302950       -4.4717998205
 H       -10.1719808550       -2.2048649026       -0.2271220906
 H       -10.2748414129       -1.9226922298       -2.0403437410
 H       -12.1000869830       -0.6997655732       -0.8518531572
 H       -11.0094807136        0.6399976545       -1.1631985381
 H       -10.2473605531        1.2582150396        3.4385259819
 H       -10.2689660234        3.0415040858        3.6352299283
 H        -8.4045437965        1.7272709295        1.5878371409
 H        -8.0354688037        1.7316433191        3.2587741660
 H        -5.4809592917        5.4410295834       -0.8102890279
 H        -4.9909532740        5.9622299421        0.8580400229
 H        -7.2932857536        7.3611870547       -0.8216816794
 H        -5.6743468613        7.7021994254       -1.3237416164
 H        -9.8524705016       10.1201120560        2.6607454517
 H        -8.2686083871        9.8800539779        3.4713936402
 H        -9.5002012894        8.7063740871        5.0450722587
 H        -9.0756184787        7.3570594687        4.0107575618
 H       -14.2731378892        8.4233133636        2.5440774504
 H       -14.3360048289       10.0285319549        1.9649612767
 H       -14.8072998083        9.6875206534        3.6015237815
 H       -13.3636983178        6.8284998637        4.5951075722
 H       -14.3012379251        8.1887656151        5.1076085848
 H       -13.0646035505        7.5851204161        6.2150579678
 H       -11.1547118375       10.5962435467        5.1126269479
 H       -10.9385042628        9.2026862585        6.2977200963
 H       -12.5304675391        9.9733884015        6.1695760240
 H        -7.6310620331       11.2102675877        2.2400711904
 H        -6.2398883656       11.2183767977        1.2534550878
 H        -6.3025858837       10.1134779721        2.5667506437
 H        -8.8494706391       10.7517021529       -0.0915583537
 H        -8.3494377089        9.1810197929       -0.9854712990
 H        -7.1655524198       10.5957836599       -0.9710620124
 H        -5.7646149550        5.5787027322        3.2465847418
 H        -4.6453623625        4.2744548813        2.6277733587
 H        -5.8457064573        3.9372631903        3.7654046927
 H        -5.6719152052        2.1053631172        1.7615726735
 H        -5.1303887188        3.2445149442        0.5357078700
 H        -6.6518959046        2.4750586073        0.2844024483
 H       -13.7841911915        0.9531884143        0.1911632937
 H       -12.6100178415        2.0540666511       -0.6111559540
 H       -13.5674299368        2.6097442166        0.7284284297
 H       -12.8630788667        1.7388801451        3.3581760411
 H       -12.3940840178        0.0417003185        3.1499409532
 H       -13.7266587419        0.5398508909        2.3387899640
 H        -6.1886405079       -3.0546756339       -2.0921454544
 H        -7.7999324908       -3.5512648560       -1.5887255987
 H        -6.7315324419       -2.7184268716       -0.4781228515
 H        -6.7393673162        0.6054069714       -2.3791476721
 H        -5.8737392319       -0.5737899666       -3.1628792106
 H        -5.6442787752       -0.3242629680       -1.3534522947
 H       -10.0887078932        0.0881661610       -8.2224303543
 H       -10.2337199823        1.7100460287       -7.7349674085
 H       -11.4943050480        1.0355207864       -8.6726044787
 H       -12.6024815961        2.2046248600       -6.0968128372
 H       -13.4687217106        0.7087395478       -5.6850188898
 H       -13.2311494051        1.3429325347       -7.3504402565
 Na      -10.0891007305        5.6359795620        1.9853188722
