117

 C       -12.6949990811       -1.6060522562       -8.2054121905
 C       -12.2156427315       -1.2122280702       -6.8235324468
 O       -12.2799689043       -1.9893783520       -5.9130009423
 C       -11.6339680679        0.2208186854       -6.6103769856
 C       -10.6741083672        0.3230883694       -5.3002194423
 O       -10.9421665901        1.0964255033       -4.3974889127
 C        -9.4361341180       -0.5454970720       -5.2395863588
 C        -8.4611195565       -0.2905282999       -4.1114418389
 C        -8.1617705739       -1.6179766556       -3.3957827639
 O        -8.3910470272       -2.7220331032       -3.8866518056
 C        -7.5487512230       -1.4963805558       -2.0140034258
 C        -8.6493595735       -0.7286872567       -1.1569525958
 O        -8.3460624437        0.1794591073       -0.3897418836
 C       -10.1149022656       -1.2792081926       -0.9836298318
 C       -11.1477057369       -0.1886895904       -0.4353245861
 C       -11.0099310497        0.1872118367        0.9563631450
 O       -10.2791664157       -0.4010932249        1.7517461012
 C       -11.9866601240        1.4015348018        1.4059778824
 C       -10.9272565772        2.5391366078        1.7203235461
 O       -10.8059193562        3.5751964797        1.0744166690
 C        -9.9746804605        2.1286755045        2.8811313674
 C        -8.4964285487        2.1724703431        2.3527230809
 C        -8.0235868942        3.6313532064        2.4943160599
 O        -8.7023069692        4.3826622528        3.1639108166
 C        -6.6421731179        4.0172910112        1.8048964150
 C        -7.0420895019        5.1508275218        0.6815838806
 O        -8.1515764904        5.2463074099        0.2322669820
 C        -5.9433233001        5.9357315817        0.0371532101
 C        -6.3182403434        7.2935083697       -0.4406315992
 C        -6.2783780024        8.3327434811        0.7628173049
 O        -5.3488346902        8.3709565024        1.5098410615
 C        -7.4064364892        9.4746243992        0.8860067636
 C        -8.5888049446        8.7722944919        1.6959470931
 O        -9.0976723968        7.7216992067        1.3141741728
 C        -9.1156424313        9.3728573842        3.0287941330
 C        -9.6710792696        8.2926865005        3.9326852236
 C       -11.1064693908        7.8888645504        3.8639742414
 O       -11.4229716862        6.7121052232        3.5186748600
 C       -12.2670870816        8.7401576968        4.5114197167
 C       -12.8140022907        9.6380853960        3.3547550910
 O       -12.1073232406       10.5729203199        3.1096024058
 C       -14.1562282990        9.4751215591        2.6954210534
 C       -13.3236861222        7.7628465105        5.1017826008
 C       -11.7004756437        9.7078253681        5.5741350538
 C        -6.7170344900       10.6407822665        1.7049949001
 C        -7.7983758602        9.9991548240       -0.5073938859
 C        -5.7466589410        4.5648726901        2.9235943760
 C        -5.9594415152        2.8794885446        1.0437710232
 C       -13.0543955532        1.7985055418        0.2894453674
 C       -12.8454714346        0.9310123380        2.6127518681
 C        -7.0093173977       -2.7152923142       -1.4092271123
 C        -6.3087723088       -0.5047269621       -2.0992302250
 C       -10.8668276124        0.7773767769       -7.8542628158
 C       -12.8283966939        1.2140660242       -6.4043429971
 H       -12.5500247470       -0.7782921041       -8.9324240003
 H       -13.7040534574       -1.9596887430       -8.1823329176
 H       -11.9726029572       -2.3096373711       -8.6495785896
 H        -8.8685565723       -0.4120059627       -6.1621862837
 H        -9.6635243554       -1.6779325428       -5.2880001649
 H        -8.9008355231        0.3952954075       -3.4337429243
 H        -7.5096659124        0.1471730063       -4.3880132115
 H       -10.2155075799       -2.1853230569       -0.3724983779
 H       -10.3995018652       -1.5177827857       -2.0573762397
 H       -12.1681477356       -0.6767803950       -0.7124573590
 H       -11.0951766980        0.7016814658       -0.9876022307
 H       -10.2198817361        1.0791932229        3.2146070451
 H       -10.1394665628        2.8314821628        3.7076063203
 H        -8.4509706522        1.9074450075        1.2747401267
 H        -7.8812121460        1.4081611943        2.8832202123
 H        -5.5390364762        5.3234797685       -0.7798071130
 H        -5.1292036010        6.0225252706        0.7733088612
 H        -7.2541824674        7.3722779990       -0.9637091728
 H        -5.5627608869        7.5597839084       -1.2306021530
 H        -9.9256347185       10.1523922629        2.8936875545
 H        -8.3104168890        9.8178699612        3.5852578616
 H        -9.5251005345        8.5791705364        4.9925062395
 H        -9.1729686139        7.3632699602        3.8268029526
 H       -14.4624671227        8.4230180926        2.4814720675
 H       -14.1328277389        9.9654715753        1.7232367823
 H       -14.9108786066        9.9250825699        3.2675392867
 H       -13.3891367454        6.8133465239        4.5616967396
 H       -14.3097928731        8.2306250635        4.9492294440
 H       -13.0693887616        7.6034496857        6.1735803672
 H       -10.9273950662       10.3404702202        5.1125875398
 H       -11.2954118109        9.1514598738        6.4183787151
 H       -12.5832132393       10.2588025491        5.9269553694
 H        -7.3565342268       11.4881149302        1.8624305681
 H        -5.8783708446       10.9735887048        1.1537355547
 H        -6.3139593993       10.2601407363        2.6246852293
 H        -8.5900355332       10.6956166116       -0.2592818060
 H        -8.1426428029        9.1457285821       -1.1090715768
 H        -6.9535437339       10.4935559160       -1.0414382199
 H        -6.1414267133        5.5328683880        3.1743280667
 H        -4.7407902471        4.5507508254        2.6083304018
 H        -5.7519645029        3.9298041642        3.7861355672
 H        -5.9709589757        2.0303903266        1.7174932524
 H        -4.8889335695        3.1361154024        0.8479871446
 H        -6.4723250191        2.6322942842        0.1259776784
 H       -13.4869641917        0.9340107815       -0.1036617782
 H       -12.6918090190        2.4027106248       -0.4926848967
 H       -13.8816650778        2.2708917590        0.7594801349
 H       -13.1382357584        1.7017005722        3.3756867346
 H       -12.4226035355        0.0646377244        3.0975693115
 H       -13.7524660820        0.5323441840        2.2548859620
 H        -6.1309311889       -3.0874560379       -1.8477520128
 H        -7.7325787655       -3.4774335079       -1.4951192180
 H        -6.8480283880       -2.6072747698       -0.3737358290
 H        -6.5973306014        0.4973588880       -2.5524252713
 H        -5.5533378400       -0.8670124929       -2.8048813565
 H        -5.8271964844       -0.3497921042       -1.1452762909
 H       -10.1926636466        0.2087543381       -8.5236893222
 H       -10.2215293528        1.5660891800       -7.4365911104
 H       -11.4737465348        1.3860560690       -8.4873586751
 H       -12.5534099556        2.2620734017       -6.4136350227
 H       -13.3901766006        0.9756358930       -5.4677320174
 H       -13.4477601571        1.1834061098       -7.2746049439
 Na      -10.0830769865        5.7003710053        1.9816895220
