117

 C       -13.0273559515       -1.5605066757       -7.9153707922
 C       -12.2276811525       -1.1737586410       -6.6310964550
 O       -11.9877647219       -1.9905658827       -5.7717203092
 C       -11.7042753306        0.3162560745       -6.5589534461
 C       -10.7416408711        0.3906061701       -5.3158171020
 O       -10.8995315672        1.1474759094       -4.3929947258
 C        -9.5562569450       -0.5732040698       -5.3492648123
 C        -8.6165902233       -0.3169058950       -4.1362390970
 C        -8.1975234801       -1.5986154113       -3.3160797761
 O        -8.3496982673       -2.7126548636       -3.7704336268
 C        -7.5496564060       -1.4378403638       -1.8503991862
 C        -8.5346570366       -0.6255640691       -1.0143733182
 O        -8.2244500917        0.4070394783       -0.4577231371
 C        -9.9692351925       -1.2422554634       -1.0368883618
 C       -11.0505962991       -0.2119924521       -0.6371859537
 C       -11.2263419590        0.1477485799        0.8306924225
 O       -10.5296628058       -0.5087436266        1.6067244332
 C       -11.9595040465        1.4154847411        1.2929073257
 C       -10.8990117527        2.4414278958        1.8187731296
 O       -10.9347374590        3.5528957229        1.3083800111
 C        -9.9012868600        2.0255221049        2.9719475547
 C        -8.5537499619        2.1553217622        2.2824829110
 C        -8.0125639609        3.5337032706        2.3857185291
 O        -8.6149140441        4.3459043354        3.0939971290
 C        -6.6314386468        4.0274236602        1.7384717027
 C        -7.0307441271        5.0582669225        0.6921579023
 O        -8.1927081684        5.4466935538        0.4922556001
 C        -5.9117136986        5.8287959548       -0.0304471937
 C        -6.4657355679        7.2466756657       -0.4145820187
 C        -6.1905106946        8.2268241993        0.8004422134
 O        -5.2761810700        8.1380175099        1.5825432741
 C        -7.2104866518        9.4454102211        0.8738553698
 C        -8.4929152653        8.8572620444        1.7142914279
 O        -8.9973726507        7.9160281605        1.1426488441
 C        -9.1142450094        9.3859422559        3.0031777806
 C        -9.6627473993        8.2533485970        4.0193876003
 C       -11.1532051528        7.8550123165        3.8768390212
 O       -11.4278160195        6.8182231625        3.3517093775
 C       -12.2579327915        8.7482994597        4.4826482382
 C       -12.7726099553        9.6444260851        3.2129894077
 O       -12.1691409057       10.6450370293        2.8826052252
 C       -14.0810770580        9.2954359812        2.5704941184
 C       -13.4747498966        7.8816455202        4.9726220719
 C       -11.8469460172        9.6421909062        5.6968920574
 C        -6.5524783515       10.7320375282        1.5025278410
 C        -7.7820089723        9.7435723112       -0.5409268462
 C        -5.9302453950        4.7572430065        2.9194366517
 C        -5.8484421983        2.7973997127        1.0558891365
 C       -12.8362781437        2.1476226122        0.2567472594
 C       -12.7228274231        1.0770772755        2.6195633432
 C        -7.3847732586       -2.8176638065       -1.2229232905
 C        -6.2095096849       -0.6720014010       -1.8559618150
 C       -10.8495258265        0.6192730566       -7.7932675436
 C       -12.9056001783        1.1365592502       -6.3130212361
 H       -13.4494420054       -0.7253116102       -8.4032811723
 H       -13.7894014799       -2.2918213755       -7.5948660092
 H       -12.3404602833       -1.8578416239       -8.6633271558
 H        -8.8958063012       -0.5429464254       -6.2503876763
 H        -9.9103946791       -1.5755684504       -5.3224707092
 H        -8.9975981198        0.5503924967       -3.4486189034
 H        -7.6116974847        0.0164005447       -4.5260588869
 H        -9.9733389248       -1.9895408201       -0.2320667915
 H       -10.1541939024       -1.7298162133       -1.9489482409
 H       -11.9113411224       -0.5633200416       -1.0875537854
 H       -10.8058665658        0.7322878018       -1.2491460021
 H       -10.0833808403        1.0453544755        3.3510654936
 H        -9.9732870463        2.7897572243        3.7774249632
 H        -8.5410898250        1.9020874140        1.1962984381
 H        -7.7968312158        1.4723835342        2.7258418452
 H        -5.7558549336        5.1998572702       -0.8798573098
 H        -5.0135738217        5.8364114268        0.5713693865
 H        -7.5513047382        7.2360287307       -0.6427374100
 H        -6.0351724878        7.6716499572       -1.2952631391
 H        -9.9569082351        9.9835451258        2.7530229080
 H        -8.4047631001       10.0305450632        3.5658148097
 H        -9.4515671309        8.5079867284        5.0449917111
 H        -9.2033829347        7.2414718274        3.8601940596
 H       -14.4204058706        8.2545392477        2.6774506128
 H       -14.0844951986        9.5400760578        1.5053836712
 H       -14.8732128796        9.9777156965        3.0415204758
 H       -13.9646537325        7.3178722276        4.1621749477
 H       -14.2355267841        8.5778563701        5.2934776318
 H       -13.1114718012        7.1710038688        5.7045190968
 H       -10.9165982432       10.1407814352        5.5381849820
 H       -11.8057392476        9.0266276213        6.5805907756
 H       -12.6604568718       10.2879577707        5.8730069321
 H        -7.2524534120       11.5265845082        1.1630255908
 H        -5.4954781721       10.9859043212        1.1454859165
 H        -6.5132197405       10.7988651515        2.6059128353
 H        -8.2797966751       10.7014638704       -0.5731559102
 H        -8.3455841778        8.9177357983       -0.8424223147
 H        -7.0031827424        9.7543255822       -1.2528880977
 H        -6.7296764614        5.2042414322        3.5279314566
 H        -5.1545989761        5.4742448001        2.5714439128
 H        -5.3180852793        3.9907905370        3.4145119262
 H        -5.6122940732        1.9871296111        1.7990575391
 H        -4.9331562487        3.2091008786        0.7320233260
 H        -6.4372921767        2.3903316579        0.1831794519
 H       -13.5182952241        1.5106866305       -0.3933385597
 H       -12.1455552307        2.6926940002       -0.3906172529
 H       -13.5477972262        2.8196510340        0.7307823539
 H       -13.4799526176        1.8424544226        2.8459472475
 H       -12.0455706221        0.8575442562        3.4312796036
 H       -13.4166929510        0.1849383202        2.5906198986
 H        -6.6337266613       -3.4017849530       -1.7521281030
 H        -8.3244552305       -3.4450119603       -1.2020234055
 H        -7.0456879382       -2.8165807382       -0.1943006378
 H        -6.1661953662        0.2205001202       -2.3965542306
 H        -5.3340537001       -1.3193007543       -2.0835525770
 H        -5.9846966958       -0.4357771023       -0.7816085937
 H       -10.2157728649       -0.2307904350       -7.9894265110
 H       -10.2224385365        1.5106424306       -7.7524253261
 H       -11.3776913622        0.8127945706       -8.7541443925
 H       -12.5733170859        2.1576200246       -6.5596225233
 H       -13.0396445721        1.1556747333       -5.2532417423
 H       -13.8649234073        1.0233655541       -6.8578415720
 Na       -9.9892220124        5.6728728323        1.7688425072
