117

 C       -13.6128273525       -1.4633856803       -6.9647653758
 C       -12.3271972826       -1.2791878827       -6.1656343918
 O       -11.8656049786       -2.2001252121       -5.5114356812
 C       -11.6387120053        0.1722972340       -6.2685037125
 C       -10.5663375379        0.3368352314       -5.1233303451
 O       -10.7188844910        1.1627567832       -4.2167154479
 C        -9.2460128946       -0.5222229975       -5.2807050187
 C        -8.3604108138       -0.4422048826       -3.9854192746
 C        -8.0366046098       -1.7546928376       -3.3321549427
 O        -8.1107041462       -2.8086552007       -3.8592727862
 C        -7.5790039055       -1.5238263414       -1.8071434337
 C        -8.5687266526       -0.5315803159       -1.1225702185
 O        -8.2472452770        0.5561253189       -0.6424687962
 C       -10.0941330956       -0.9471538020       -0.9762476063
 C       -10.9672365230        0.2793126373       -0.7237562100
 C       -11.4425550425        0.2309316117        0.7737957576
 O       -11.3462350016       -0.7839594800        1.4118109595
 C       -12.1738833024        1.5493235632        1.4503637142
 C       -11.0770933613        2.5020001233        2.0265105149
 O       -11.1468263404        3.6559374355        1.7307548154
 C        -9.8276979012        1.9706947493        2.7439629601
 C        -8.4899385727        2.3641882387        2.1707070197
 C        -7.8736880472        3.7172782863        2.5275175718
 O        -8.2828778721        4.4701267877        3.3587047736
 C        -6.5651123384        4.1136079756        1.7855537580
 C        -6.8939146445        5.1070468977        0.5484212909
 O        -8.0609999364        5.2736218134        0.3155018537
 C        -5.8173262679        5.8259296648       -0.1750791574
 C        -6.3705347482        7.2244820249       -0.4784707566
 C        -6.4116224512        8.0453116086        0.7859472851
 O        -5.9592877482        7.6043973162        1.8348591901
 C        -7.3780247013        9.3458788644        0.8682947598
 C        -8.6033603367        8.6815709198        1.5749219263
 O        -9.2298698121        7.8326315604        0.9400276045
 C        -8.9640963000        9.1992972516        2.9984867819
 C        -9.5771209669        8.0475910536        3.8796004627
 C       -11.0816588401        7.9448476481        3.6096979117
 O       -11.3938713050        7.1312242712        2.6865659706
 C       -12.1874523014        8.8897240933        4.1733254185
 C       -12.5853159090        9.7516029678        2.8653173482
 O       -11.9420288840       10.7359551815        2.5979049017
 C       -13.7852320455        9.3043946912        2.1014552650
 C       -13.3407652895        7.9913227984        4.7280020384
 C       -11.6526327919        9.7800032838        5.3058040069
 C        -6.6204290546       10.4311469194        1.5642445273
 C        -7.8354119108        9.8888474877       -0.5228954856
 C        -5.6595334598        4.8525344447        2.9001525443
 C        -5.7818483658        2.8335978753        1.2844689878
 C       -12.8374570479        2.3727162297        0.2713543140
 C       -13.1793014172        1.3595995659        2.5629045240
 C        -7.6412064884       -2.9121929468       -1.1746624568
 C        -6.1284633081       -0.7942169101       -1.7472798518
 C       -10.9126158316        0.3675872475       -7.6320465262
 C       -12.8429597713        1.2110746171       -6.1998783254
 H       -14.4650208291       -0.9418008968       -6.4788984423
 H       -13.9707869625       -2.4015794432       -7.1738252652
 H       -13.4716389624       -0.8646008124       -7.8631975512
 H        -8.7586753451       -0.1410707841       -6.2087564903
 H        -9.5466017031       -1.5403212206       -5.4422003555
 H        -9.0460853617        0.1509141735       -3.2256969481
 H        -7.4443465202        0.1710723893       -4.1497202602
 H       -10.2721534502       -1.5990372601       -0.1247208564
 H       -10.3601250520       -1.5143641784       -1.8503983100
 H       -11.7874295355        0.1962447340       -1.4913312704
 H       -10.4770468210        1.1587598493       -1.0125154360
 H        -9.9059813769        0.8651272415        2.6352276111
 H        -9.8476778215        2.1024111207        3.8176885302
 H        -8.4585498961        2.2786222445        1.0695614681
 H        -7.7394276624        1.5699952726        2.4185467638
 H        -5.5128496974        5.3109465794       -1.0592987297
 H        -5.0174836640        5.8522294200        0.5751658261
 H        -7.3596805117        7.2466399727       -0.9231060300
 H        -5.6442727746        7.6931507818       -1.1408887291
 H        -9.6483316702       10.0044123626        2.7908552359
 H        -8.1172243275        9.6146325243        3.5480462481
 H        -9.4721538072        8.1992896782        4.9776056674
 H        -9.0681254327        7.0949946344        3.7089747039
 H       -13.6088962793        9.2638066245        0.9867581893
 H       -14.6529457543        9.9100256091        2.4575743236
 H       -14.1284901483        8.3116262747        2.3350510728
 H       -13.5833814397        7.3060664885        3.8986791577
 H       -14.1799669033        8.6305574239        5.0402235992
 H       -12.9879623939        7.3343481260        5.5685486821
 H       -10.8547480303       10.4075133786        4.9017026743
 H       -11.2890299895        9.1762248531        6.1040956956
 H       -12.4174805131       10.4619648814        5.6321632108
 H        -7.1613133759       11.4039080746        1.5975873554
 H        -5.6451583538       10.6240730674        1.0876773868
 H        -6.5013104557       10.1958484880        2.6461884149
 H        -8.6869553764       10.5547652095       -0.5085820028
 H        -8.1452966213        9.1390925808       -1.2380223446
 H        -7.0236555945       10.4325453998       -0.9263898338
 H        -5.9774988682        5.9092701276        2.9926599734
 H        -4.5902107388        4.7692726171        2.6932977645
 H        -5.9513806894        4.3050733470        3.7948178598
 H        -5.9315563058        2.0210367310        2.0129631302
 H        -4.7074205218        3.1128367427        1.2027423415
 H        -6.2356462559        2.5294181350        0.3524841800
 H       -13.3291018970        1.7296857600       -0.4253574973
 H       -12.1767116436        3.0201211763       -0.3300454376
 H       -13.5639035343        3.1008228273        0.6706248011
 H       -13.3128605966        2.3162604764        3.1613562835
 H       -12.8950701176        0.5909168385        3.3309078640
 H       -14.1800776898        1.1697055558        2.1750328061
 H        -6.8543441627       -3.5546181425       -1.5818506541
 H        -8.5337977799       -3.4263191300       -1.4576319631
 H        -7.5477572847       -2.9574541822       -0.0866184117
 H        -6.2400709389        0.2784881437       -1.9885222098
 H        -5.3403595887       -1.2963597556       -2.2699293612
 H        -5.6913648645       -0.7237327896       -0.7814803214
 H       -10.4321921521       -0.5167484927       -8.1319463605
 H       -10.1751661553        1.1803727500       -7.7177102282
 H       -11.6700733118        0.6436537139       -8.3562062574
 H       -12.4338423538        2.1860426199       -5.9424482041
 H       -13.6193268482        0.9822095292       -5.4282268337
 H       -13.4433680845        1.1687204581       -7.0583629587
 Na       -9.7947611377        5.4673226655        1.9593909101
