117

 C       -13.6432754938       -1.4787349727       -6.7663775521
 C       -12.3234135165       -1.2815798322       -6.1133007181
 O       -11.8344668593       -2.2064419845       -5.4742672765
 C       -11.6384068673        0.1693764305       -6.2054243931
 C       -10.5611876283        0.3466622198       -5.1149842809
 O       -10.6682414985        1.0654061751       -4.1422517283
 C        -9.3018877231       -0.5148690267       -5.2760408539
 C        -8.3200689593       -0.3641078796       -4.0958912874
 C        -8.0550768109       -1.6809484619       -3.3510821197
 O        -8.0106159522       -2.7859767607       -3.8158896449
 C        -7.6533142189       -1.5337966815       -1.8172654120
 C        -8.5567238235       -0.5196028844       -1.0841431564
 O        -8.1906466150        0.5487523124       -0.6117237918
 C       -10.0832547379       -0.9262101715       -0.9594613261
 C       -11.0077378831        0.3266344511       -0.6084903427
 C       -11.5250024329        0.3336570673        0.8024166481
 O       -11.5398763589       -0.6530592811        1.4638901076
 C       -12.1657661764        1.6925812327        1.3907284832
 C       -11.0160153858        2.5883592204        1.9016888454
 O       -11.0716645383        3.8024425133        1.7736909630
 C        -9.8336036911        2.0314453695        2.7816814873
 C        -8.5455798073        2.3467105551        1.9877137557
 C        -7.8598978735        3.6475920481        2.5134736466
 O        -8.3691511321        4.3329484881        3.4203082046
 C        -6.5713790264        4.0523980675        1.8614856179
 C        -6.8998013116        5.0590333581        0.6253807611
 O        -8.0554130167        5.2650519048        0.2821128026
 C        -5.7914142341        5.8147465567       -0.2450264076
 C        -6.3973634119        7.2220301688       -0.4520923994
 C        -6.5159522856        8.0211354687        0.8378649216
 O        -6.0305380024        7.6904181752        1.9158356226
 C        -7.3535759287        9.3076144688        0.8290869896
 C        -8.6387528211        8.7080573140        1.5516867626
 O        -9.2381941049        7.8224574392        1.0245479404
 C        -8.8780511385        9.0992979854        2.9795130691
 C        -9.5962119254        8.0426582755        3.8808323489
 C       -11.0902060917        7.8614310447        3.4682296257
 O       -11.4735650856        6.9646999766        2.7098612881
 C       -12.1113103225        8.8428073213        4.0442100847
 C       -12.5915115645        9.7528198772        2.8603998441
 O       -11.9323128646       10.7414122949        2.5981753896
 C       -13.7801929611        9.3577425405        1.9574693180
 C       -13.3659302644        8.1563416360        4.6320225684
 C       -11.5180264523        9.7528751303        5.1597069136
 C        -6.5498734102       10.4708718731        1.5570500973
 C        -7.8352085402        9.7790978213       -0.5661264716
 C        -5.6704581739        4.7499668811        2.9108399085
 C        -5.7508944482        2.8116465376        1.2704737604
 C       -12.8967028415        2.3709453756        0.2591265097
 C       -13.1084183178        1.2974139986        2.6160869817
 C        -7.6007536271       -2.8834425681       -1.2125298927
 C        -6.2679891762       -0.8951578854       -1.7804817763
 C       -10.9924587433        0.2497935809       -7.5830680416
 C       -12.6430697763        1.2756044955       -6.1056150419
 H       -14.4756703305       -1.2313542529       -6.0785867670
 H       -13.8693573088       -2.5257738011       -7.0609134412
 H       -13.8048870799       -0.8432970870       -7.6807080597
 H        -8.8952411845       -0.1599575437       -6.1604162580
 H        -9.5445581742       -1.5720394930       -5.3973030625
 H        -8.6922675486        0.3752682197       -3.4608889833
 H        -7.3595465720        0.0002247883       -4.5248997805
 H       -10.3059315703       -1.6985086093       -0.2184065257
 H       -10.3332847227       -1.4082702254       -1.9575497737
 H       -11.7610093178        0.2942995962       -1.4377164774
 H       -10.5011228671        1.2302554533       -0.8180191778
 H        -9.9557598747        0.9639025470        2.9918314991
 H        -9.7796182499        2.4785770536        3.7451017194
 H        -8.7058315890        2.5103847454        0.9501121990
 H        -7.8603031867        1.5370023524        1.9523140760
 H        -5.8392182874        5.3059470968       -1.2808617927
 H        -4.7787186310        5.7601602519        0.2023357002
 H        -7.3952209702        7.1153402262       -0.8162243669
 H        -5.7771257877        7.7819820682       -1.1948650977
 H        -9.4897700197       10.0410414207        2.9673465305
 H        -7.9643138793        9.3522254901        3.4446390310
 H        -9.6053229109        8.3800180792        4.9478159208
 H        -9.1306023540        7.0670067540        3.9311934796
 H       -13.7007619781        9.8771108439        1.0662520977
 H       -14.7614230911        9.4578153419        2.5125091501
 H       -13.7779594325        8.3006358698        1.6472520432
 H       -13.8774513031        7.5729578186        3.9015898791
 H       -13.9720345563        8.9720994279        5.0805825823
 H       -13.0329324724        7.5337331293        5.4585703156
 H       -10.6484283896       10.2246674282        4.7987131511
 H       -11.3211188259        9.2473056177        6.0810889171
 H       -12.1791980567       10.6179825157        5.2745184194
 H        -6.9949013046       11.4983475068        1.4890193239
 H        -5.6120097503       10.5479191642        1.0342012458
 H        -6.3697239587       10.3503351042        2.6756632320
 H        -8.5090191938       10.6033285182       -0.4026445491
 H        -8.5734870989        9.1270823539       -1.0799971852
 H        -7.0734626700       10.1604899994       -1.2582592305
 H        -6.1674458109        5.6918733818        3.1793370007
 H        -4.6523484694        4.9508180163        2.5160268130
 H        -5.7303706201        4.0327594875        3.7702168062
 H        -5.5518499729        2.2003101022        2.1065163087
 H        -4.7824490713        3.2764572474        0.8837836472
 H        -6.3225975006        2.2762841258        0.5311341155
 H       -13.4657791279        1.6270805614       -0.3036404092
 H       -12.2044069095        2.8505439917       -0.5112064014
 H       -13.5253619837        3.2720451315        0.5459384312
 H       -13.3397763423        2.0620011699        3.3024146427
 H       -12.5770212596        0.4976947386        3.2577173923
 H       -14.0537984750        0.8468996374        2.2157193192
 H        -6.9093875018       -3.6609509374       -1.6368118511
 H        -8.5794131561       -3.3111474450       -1.4217995554
 H        -7.5207766131       -2.8875035608       -0.0713335680
 H        -6.2062136170        0.1286333549       -2.2335497446
 H        -5.5514151290       -1.5631499948       -2.2002487446
 H        -5.8772639255       -0.6995206782       -0.8132861801
 H       -10.4311657817       -0.6257566277       -7.8990675693
 H       -10.2366904730        1.0522006478       -7.6108784932
 H       -11.6647548581        0.4624924613       -8.4248976620
 H       -12.1565213785        2.2302936223       -6.1632922624
 H       -13.2025441684        1.2673583015       -5.1899492931
 H       -13.4181232674        1.0649810653       -6.8172947635
 Na       -9.7657569745        5.5419313412        1.9271921645
