117

 C       -13.7355455669       -1.4470757248       -6.4261232073
 C       -12.3707502156       -1.2213149756       -5.9081535869
 O       -11.7398572972       -2.1362534445       -5.4146979679
 C       -11.6192786629        0.1817941621       -6.1216775444
 C       -10.4957042749        0.1912402585       -5.0828245245
 O       -10.6608986372        0.8281752880       -4.0367935528
 C        -9.1835543560       -0.5454057775       -5.2879698035
 C        -8.1091369865       -0.3268744177       -4.1608580064
 C        -7.9782888541       -1.6225860807       -3.3571777024
 O        -8.0374216196       -2.6728525391       -3.9204460963
 C        -7.6574899268       -1.5014332892       -1.8271325915
 C        -8.5752348876       -0.4862449892       -1.0211390986
 O        -8.1900013993        0.5550990660       -0.5051600032
 C       -10.0951405541       -0.8627798035       -0.9324119407
 C       -10.9287179079        0.4249324000       -0.5708782897
 C       -11.5830073450        0.4113590864        0.8345286559
 O       -11.5977361712       -0.6405317847        1.4392092712
 C       -12.2607543589        1.7648284210        1.4272353961
 C       -11.0856995003        2.7388778184        1.8194263661
 O       -11.2215637590        3.9097875112        1.5406317081
 C        -9.9425815665        2.0736968453        2.5310381559
 C        -8.5641313409        2.1969758275        1.9705027639
 C        -7.8420921916        3.4099906752        2.5001090422
 O        -8.2989359754        4.1639077952        3.3132047996
 C        -6.4724128355        3.9492892882        1.8327331273
 C        -6.9680509698        4.9915452064        0.7218400455
 O        -8.1392957195        5.0539984130        0.4530505415
 C        -5.8442962063        5.7158408891       -0.0773622413
 C        -6.2156777633        7.1361414305       -0.4189669071
 C        -6.4719292802        7.9832616763        0.8260365849
 O        -5.9427364660        7.6657115039        1.8678045052
 C        -7.3822277608        9.3019293956        0.7259631158
 C        -8.5788324972        8.7361941953        1.6181659363
 O        -9.3405716771        7.9133254754        1.0728586640
 C        -8.7889140516        8.9753198551        3.0986154147
 C        -9.5819452896        7.8620454323        3.8059092474
 C       -11.1164460590        7.7901182752        3.4653253140
 O       -11.6361344709        6.7919350021        2.9541045928
 C       -12.1233521216        8.9295116801        3.9389562057
 C       -12.5319848336        9.8799211205        2.6573631269
 O       -11.8402061325       10.8503279861        2.4675908253
 C       -13.6101855992        9.4557274763        1.7345814304
 C       -13.3527498058        8.2064060615        4.5251766759
 C       -11.5333034603        9.8342786704        4.9625730320
 C        -6.7163123093       10.4951193818        1.4699783174
 C        -7.8191336322        9.6629911236       -0.6342048848
 C        -5.6421913232        4.7311131508        2.8819302882
 C        -5.6242650577        2.8579590161        1.0983248829
 C       -13.1456154977        2.4925547652        0.3956082195
 C       -13.1087198131        1.4259695629        2.7102818379
 C        -7.7837216259       -2.8225829498       -1.0945821732
 C        -6.1398143947       -0.9665317579       -1.7567993151
 C       -11.1444717113        0.0353768083       -7.5885084658
 C       -12.5524454711        1.4038704491       -5.9635027577
 H       -14.5133957884       -1.4429301274       -5.6107437749
 H       -13.8396618760       -2.4690471080       -6.7552228313
 H       -14.0856360237       -0.8573755623       -7.2922947259
 H        -8.8356204970       -0.3780259377       -6.3755149272
 H        -9.4676500400       -1.5957510738       -5.1636693308
 H        -8.3827479193        0.5892576093       -3.5446861893
 H        -7.2006516447       -0.1352380229       -4.6365575050
 H       -10.2946105916       -1.6332615913       -0.1363907944
 H       -10.3389014548       -1.3688459105       -1.8480957475
 H       -11.6240170608        0.4512078190       -1.3845537823
 H       -10.3000797328        1.3366873133       -0.8216887924
 H       -10.1685676468        1.0428834539        2.7783705335
 H        -9.9543854153        2.5589969840        3.5414742262
 H        -8.4970086504        2.4100843377        0.8771884399
 H        -8.0238508400        1.2293441942        2.0680554141
 H        -5.6318216702        5.1465724447       -0.9407339594
 H        -4.9493385488        5.7435666919        0.5575946213
 H        -7.1361928368        7.1586072619       -1.0664009655
 H        -5.3523045835        7.5701435552       -0.9145597770
 H        -9.3693912711        9.8712366007        3.2818895295
 H        -7.7854726977        9.1449634584        3.6083560906
 H        -9.5461541397        8.0200042256        4.8682556803
 H        -9.2635858614        6.8333231500        3.6491026031
 H       -14.2324459615       10.3177509410        1.3695816972
 H       -14.1751654788        8.6737176841        2.1474484411
 H       -13.2015293418        9.0970687914        0.8213947684
 H       -13.6178526395        7.4398086566        3.8006846916
 H       -14.1266261244        8.8790947670        4.7524312108
 H       -13.1081198876        7.8088688628        5.4952011244
 H       -10.7915507253       10.5747665222        4.5634805317
 H       -11.0489301698        9.1714881329        5.6980666323
 H       -12.2592218927       10.4779255507        5.4362089503
 H        -7.4494638225       11.1769945528        1.8046393934
 H        -6.1031646945       11.0896676305        0.7956500130
 H        -6.1762110579       10.2381647036        2.3272090229
 H        -8.1220934995       10.7090999299       -0.9067809929
 H        -8.7592980459        9.1547091490       -0.8519957301
 H        -7.0349256764        9.3969646572       -1.3660678909
 H        -6.2838744152        5.2026346822        3.6230547836
 H        -5.2010978811        5.5086018791        2.3136097126
 H        -4.9451386193        4.0849150495        3.3443745839
 H        -5.0491046436        2.3993882987        1.9172471572
 H        -4.9741471725        3.3177567551        0.4217194451
 H        -6.2484957008        2.1525455630        0.5722789228
 H       -14.0591421317        1.9564372986        0.1583700436
 H       -12.6082693022        2.4818516020       -0.5292655042
 H       -13.2840441910        3.5312548577        0.5543149764
 H       -13.7582694001        2.2897125611        3.0136498617
 H       -12.5800226831        1.2943946512        3.6085420544
 H       -13.6312160748        0.5339024551        2.5074434638
 H        -7.3798517043       -3.6412519772       -1.6639888109
 H        -8.8208986834       -3.1572357159       -0.8994240398
 H        -7.2873296252       -2.7958146274       -0.1514754032
 H        -5.9581518396       -0.0129750777       -2.2401456313
 H        -5.3513563727       -1.6406128243       -2.1795847096
 H        -5.8885719538       -0.7772753175       -0.6816207136
 H       -10.4535758958       -0.7844194586       -7.7535028804
 H       -10.6139343194        0.8545662777       -8.0214789105
 H       -12.0017276692       -0.1847362518       -8.1981751155
 H       -12.0921367354        2.2892040096       -6.4044237056
 H       -12.6183791646        1.6336979316       -4.8829380415
 H       -13.5690869569        1.2123609080       -6.2822275649
 Na       -9.7658703240        5.7948543734        1.8577733429
