117

 C       -13.9694455359       -1.3041426426       -5.7440150483
 C       -12.4096848918       -1.2860510445       -5.6295180375
 O       -11.8098200478       -2.1839836805       -5.1339426031
 C       -11.5912696182        0.0290090798       -6.0402497957
 C       -10.4619105642        0.1527057895       -4.9995395729
 O       -10.6933244414        0.5971186516       -3.8789045653
 C        -8.9513896554       -0.2864639167       -5.3925179413
 C        -7.9892318846       -0.3295258725       -4.1221449596
 C        -8.0481157163       -1.5933044471       -3.2370840966
 O        -8.2071994195       -2.6362640998       -3.8060252305
 C        -7.6992724277       -1.4214621746       -1.6188760232
 C        -8.5655744852       -0.3037737745       -0.9879332066
 O        -8.0395646351        0.7511267206       -0.6851349718
 C       -10.0382866652       -0.5658645411       -1.0307582065
 C       -10.8953882444        0.6731741230       -0.5762417797
 C       -11.6806326712        0.4846884067        0.7289014825
 O       -11.7314944846       -0.5391808379        1.3782492215
 C       -12.3838957456        1.7655544280        1.3651482788
 C       -11.1337695768        2.7283529805        1.5464645040
 O       -10.9802252840        3.7713777724        0.9652492935
 C       -10.0735609089        2.1549403030        2.5356630658
 C        -8.6171618703        2.2173214063        2.0720932120
 C        -7.9320158020        3.4880027649        2.4245633252
 O        -8.4943011993        4.3018901483        3.1750640331
 C        -6.4812904978        3.8321335936        1.8140571974
 C        -6.7962021717        4.9551639858        0.7351705012
 O        -7.9176781544        5.2898558899        0.4444708722
 C        -5.7123007485        5.7025211642       -0.1371357355
 C        -6.2369610231        7.0896674681       -0.4392751491
 C        -6.3674137617        7.9997335275        0.7633619510
 O        -5.6901332786        7.8739371894        1.7490662190
 C        -7.5167202167        9.1316850372        0.7438490269
 C        -8.7520955716        8.4765375314        1.5544424388
 O        -9.6458252256        7.8299001361        0.9806778050
 C        -8.7160489305        8.8493178613        3.0788544644
 C        -9.5797292438        8.0676188705        3.9871960936
 C       -11.0772537555        7.9446781822        3.5547587663
 O       -11.4605963298        6.9449183014        3.0333539145
 C       -12.1158083435        9.0717286333        3.9150622958
 C       -12.2117104199        9.8653571319        2.5053672750
 O       -11.4246443017       10.7595405683        2.3018331780
 C       -13.1827476788        9.3290186173        1.4941515068
 C       -13.4855268914        8.5122459862        4.2206881564
 C       -11.6730718376       10.0615245263        4.9801654084
 C        -6.9149191781       10.3068744928        1.4450342199
 C        -7.8578782435        9.4977266132       -0.7156267498
 C        -5.5392869451        4.5021920696        2.9159547038
 C        -5.8195896888        2.6061913512        1.1311864264
 C       -13.3494859331        2.3413724528        0.2831940423
 C       -12.9993472891        1.3751637618        2.7077970892
 C        -7.9171594729       -2.8431019735       -1.0256394619
 C        -6.2566190899       -1.0953073575       -1.5485574996
 C       -11.0751510219       -0.0462927719       -7.4763080714
 C       -12.4424624484        1.2647622326       -5.7417450533
 H       -14.4883338167       -0.6724495779       -5.0182128336
 H       -14.4675052373       -2.2639890540       -5.5274877885
 H       -14.2998061206       -1.1953612476       -6.7670608749
 H        -8.5870886418        0.3391583376       -6.1618413903
 H        -9.1318696706       -1.2709832014       -5.7559542212
 H        -8.1888412309        0.5536713519       -3.5772717249
 H        -7.0233418635       -0.1895853938       -4.5425612333
 H       -10.2057532384       -1.4642618549       -0.4151586087
 H       -10.1663394229       -0.9922077385       -2.0344672258
 H       -11.5981039843        0.8564000229       -1.3227006327
 H       -10.1912349805        1.5525203831       -0.6619984958
 H       -10.2835614102        1.1332389494        2.7350033607
 H       -10.3203149998        2.6500201719        3.4812165152
 H        -8.5972172333        1.9643727573        1.0328661836
 H        -8.0845179513        1.4083819329        2.5113729379
 H        -5.5502980903        5.1482108832       -1.1284194172
 H        -4.6987531817        5.6699117268        0.3634721246
 H        -7.2325163961        6.9424503453       -0.8788816980
 H        -5.5581501409        7.6084627913       -1.0883994455
 H        -8.9520430417        9.9134001598        3.1086892595
 H        -7.7067690521        8.7882508001        3.4792850876
 H        -9.5663786895        8.4906340221        4.9871537975
 H        -9.2085334551        7.0059507417        4.0497451303
 H       -14.2072827969        9.1429069107        1.9421041404
 H       -12.8486703691        8.4007190415        1.1426983836
 H       -13.3311822651       10.0221950115        0.6489683741
 H       -13.7495096548        7.7682564169        3.4256355644
 H       -14.1814172350        9.3419816801        4.2672399557
 H       -13.4991345095        8.1093846015        5.2299578326
 H       -10.8942367979       10.7240913962        4.6106129580
 H       -11.3659024775        9.6606929916        5.9462864211
 H       -12.5118869217       10.6872484172        5.1675257395
 H        -7.5396772570       11.2007060995        1.6653813036
 H        -6.0132472233       10.7202962312        0.8504352318
 H        -6.4526059889        9.9439745707        2.3678796257
 H        -8.8376699066       10.0156507495       -0.7913567373
 H        -8.0626178701        8.6594829092       -1.3297890879
 H        -7.2232180710       10.1602798908       -1.2931921647
 H        -6.1246726533        5.0729044024        3.6724934307
 H        -4.8594776577        5.1948320518        2.3522746394
 H        -4.9586785322        3.7241568439        3.4383625224
 H        -5.9230458757        1.7304922045        1.8323973005
 H        -4.8126253755        2.8145511571        0.9572256458
 H        -6.3102124935        2.4973777941        0.1371358913
 H       -14.2289033696        1.6467564893        0.0158595142
 H       -12.8484473470        2.6443476399       -0.6576611867
 H       -13.8259387566        3.2442419919        0.7072026559
 H       -13.8889806282        2.0904558995        2.8664851000
 H       -12.4120355234        1.6576370226        3.5296886106
 H       -13.1758957307        0.2874970718        2.8176096282
 H        -7.0615907088       -3.4753593514       -1.3184493243
 H        -8.9330965248       -3.3557074633       -1.2025760243
 H        -7.7915457107       -2.7611750164        0.0605148381
 H        -6.0426088861       -0.2426419092       -2.0566382340
 H        -5.6728000457       -1.7503442305       -2.1912225772
 H        -5.8643448219       -1.0690205495       -0.5218383127
 H       -10.4752351780       -0.9413608151       -7.6332532807
 H       -10.3541470665        0.7641055609       -7.6563907395
 H       -11.8550164653       -0.0307742682       -8.2749587529
 H       -11.9297500723        2.2285551008       -5.7434152852
 H       -12.9056504758        1.1333885720       -4.7791847915
 H       -13.2126782828        1.3247935913       -6.5537209710
 Na       -9.9851920965        5.4935678622        1.8988329242
