117

 C       -13.9129793851       -1.2207653293       -5.3499779505
 C       -12.3822778532       -1.2877652406       -5.2707475748
 O       -11.7960622320       -2.3047266620       -5.0814424338
 C       -11.5779042855        0.0040311508       -5.7155509794
 C       -10.3833983120        0.1536673047       -4.6624142215
 O       -10.5499467496        0.5700255774       -3.5439538826
 C        -9.0146543212       -0.2440666367       -5.2427221505
 C        -7.9726413598       -0.2393998017       -4.0715999367
 C        -8.1639474773       -1.5474200088       -3.2334839388
 O        -8.5733861397       -2.5946358531       -3.6853021741
 C        -7.7413487930       -1.4712202011       -1.6971602002
 C        -8.5230719623       -0.2162599752       -1.1012426310
 O        -8.0972754174        0.8938086294       -0.8290713560
 C        -9.9988160813       -0.5505725142       -1.0847972100
 C       -11.0090934025        0.5592366058       -0.7960621489
 C       -11.7801138536        0.3876438892        0.5357028309
 O       -11.7909702470       -0.6991645827        1.0813523349
 C       -12.4181173577        1.7051361926        1.2068990275
 C       -11.2598360485        2.6724970164        1.6287870763
 O       -10.9543843735        3.6137555238        0.9073259160
 C       -10.3094059587        2.3952414041        2.7965105699
 C        -8.8260381815        2.3693717221        2.2232604834
 C        -7.9812320788        3.6143191833        2.5054336277
 O        -8.4228758089        4.4952537883        3.2799261962
 C        -6.6233515594        3.8608690496        1.7911834654
 C        -6.7998744838        5.0645517527        0.7595497585
 O        -7.9078244719        5.5043147411        0.4911482299
 C        -5.6070145691        5.7118878717       -0.0041337611
 C        -6.0925220499        7.0705235442       -0.5885286504
 C        -6.2956965828        8.0194029709        0.6739519871
 O        -5.6960136782        7.9341309550        1.7159980556
 C        -7.4936807427        9.1329643397        0.6545272225
 C        -8.5629624014        8.4717292229        1.6382030413
 O        -9.2904563870        7.6100474068        1.2090890974
 C        -8.7419390031        8.9383369160        3.0674525693
 C        -9.6099641249        7.9539007400        3.8886533091
 C       -11.1392770064        7.8632825926        3.5806569465
 O       -11.5387533567        6.8778013440        3.0199328562
 C       -12.0741364562        9.1668974899        3.7517569054
 C       -11.8761576215        9.7940490539        2.3504918068
 O       -11.0134392836       10.6335714127        2.2623420501
 C       -12.6598873669        9.3417347137        1.0934037454
 C       -13.4868646574        8.7147550785        4.0717683549
 C       -11.6172261865       10.1937549146        4.8218345046
 C        -6.9042969389       10.4326511782        1.1303826783
 C        -8.3408144072        9.2512755063       -0.6066668815
 C        -5.5840476847        4.2807876304        2.9032451455
 C        -6.0076804283        2.6042985405        0.9880126840
 C       -13.3362108120        2.3302023620        0.1814984096
 C       -13.0843367725        1.2758700112        2.5194378835
 C        -8.0012494852       -2.8076242797       -0.9948346586
 C        -6.2406700125       -1.0310818611       -1.4986892838
 C       -11.0338552963       -0.4172796291       -7.1348012727
 C       -12.3497383028        1.3406722456       -5.7133883151
 H       -14.3532542527       -0.3435013567       -5.0139442406
 H       -14.5072006246       -2.0009391475       -4.8130137759
 H       -14.2568521903       -1.4593874887       -6.3174531363
 H        -8.9448754393        0.3585460882       -6.1435112510
 H        -9.1740410638       -1.3519701762       -5.5680901487
 H        -7.9107299394        0.7446107948       -3.5281168745
 H        -6.9035879707       -0.3580927838       -4.5934216443
 H       -10.1391531108       -1.3129461057       -0.3638079129
 H       -10.2490517509       -1.1144482023       -2.0093849701
 H       -11.5528221903        0.7609841313       -1.7347238309
 H       -10.3755328001        1.4356783183       -0.6419421922
 H       -10.6275594046        1.4627624379        3.3018532481
 H       -10.1596858481        3.1884741491        3.5734434256
 H        -8.8342439300        2.2068005821        1.0900112280
 H        -8.3150564660        1.4745784938        2.7083444114
 H        -5.3075921191        5.0244066146       -0.7886647009
 H        -4.7243514063        5.8446734243        0.5303745336
 H        -6.9940868327        7.0159429694       -1.1654071244
 H        -5.2453303440        7.4903331545       -1.1719851338
 H        -9.0698824321       10.0131924534        2.9909730814
 H        -7.8274652556        9.0167917831        3.5985468230
 H        -9.5096953487        8.2477052255        4.9349820044
 H        -9.1568666983        6.9648377327        3.7946949406
 H       -13.5421967052        8.7182794088        1.3408691816
 H       -12.1393583534        8.7434745592        0.3810678417
 H       -12.9471824044       10.3176429901        0.5941329099
 H       -13.7723762099        7.8313509785        3.4862983000
 H       -14.1873916443        9.5377022996        3.8825630263
 H       -13.4361524034        8.3642452207        5.0876108203
 H       -10.5547983349       10.3682513472        4.6829552321
 H       -11.6999198352        9.8337329066        5.8695731007
 H       -12.1932461254       11.1392497077        4.8456631269
 H        -7.6528502580       11.1157833223        1.4494277304
 H        -6.3017995265       10.9228223136        0.3877612108
 H        -6.2273285063       10.2069675790        1.8996956972
 H        -8.8489842088       10.2046727398       -0.7331668317
 H        -8.9913836039        8.4267282880       -0.7410279040
 H        -7.8182290531        9.1519780012       -1.5584813300
 H        -5.6024058976        5.3208545912        3.0491125906
 H        -4.6008404989        3.8426023839        2.8078970047
 H        -5.9852955693        3.8921729657        3.8244712882
 H        -5.6053017198        1.9139698817        1.7234088520
 H        -5.1953965917        2.9563754422        0.3890433099
 H        -6.7422197562        2.1323893426        0.3030508847
 H       -14.0795694717        1.5738163091       -0.0950938752
 H       -12.7722748612        2.4965946451       -0.6634494960
 H       -13.8916540461        3.1434705786        0.4708953517
 H       -13.5999005683        2.1059192231        3.0404839542
 H       -12.4020614601        0.7162288021        3.0919164738
 H       -13.8009061417        0.4813156998        2.2295887593
 H        -7.2821080753       -3.5191239754       -1.2558544614
 H        -8.9941986490       -3.1324233387       -1.3186999659
 H        -8.0550740663       -2.6934571911        0.0317778031
 H        -5.9409693558       -0.1972092297       -2.0754218003
 H        -5.4631572256       -1.7505702383       -1.8598530828
 H        -6.1026745785       -0.9357678990       -0.3953701223
 H       -10.5686440608       -1.3709801689       -7.0534618384
 H       -10.4590567314        0.3177069337       -7.6998800859
 H       -11.8993334441       -0.6048578013       -7.7912440387
 H       -11.7487939217        2.0226558448       -6.3289410858
 H       -12.3934910015        1.7028020884       -4.7250404405
 H       -13.2860751608        1.3160777833       -6.3132082985
 Na      -10.1230490052        5.5710537568        1.7801579624
