117

 C       -13.8134849991       -1.0615178192       -4.8035688042
 C       -12.3569567159       -1.3532570911       -5.0658650752
 O       -11.8802382414       -2.3635516427       -4.6795305706
 C       -11.5047151891       -0.0714631257       -5.7175135242
 C       -10.2686796938        0.2019264124       -4.8316297313
 O       -10.3314232681        0.7608051402       -3.7773303540
 C        -8.8667430599       -0.3045736537       -5.2890636641
 C        -7.8838592433       -0.3855538601       -4.1056294311
 C        -8.0904957829       -1.5697951581       -3.1293087704
 O        -8.7414830355       -2.5075280412       -3.5791701731
 C        -7.6011865575       -1.3929877163       -1.5982831646
 C        -8.6505316442       -0.3826880420       -1.0401897423
 O        -8.2930159727        0.7292162571       -0.7260654351
 C       -10.1070308651       -0.8348670818       -1.0338663523
 C       -10.9721223439        0.4190339322       -0.6848653091
 C       -11.8352681863        0.2992352379        0.5699921325
 O       -11.9004639333       -0.7566370788        1.1650501990
 C       -12.5374399226        1.6489314768        1.1485775718
 C       -11.3364793505        2.6850879029        1.5559004210
 O       -11.4376869675        3.8411429716        1.1248729548
 C       -10.3260065726        2.3638434746        2.7800653675
 C        -8.8000715275        2.3468019545        2.3706732885
 C        -8.0463625924        3.6750398572        2.5847800273
 O        -8.4946728732        4.6342169891        3.2162038549
 C        -6.8010174930        3.8898504043        1.7682281473
 C        -7.0650001108        5.0238270482        0.7422461597
 O        -8.2171883422        5.3939382970        0.4512507300
 C        -5.7567514969        5.6759608951        0.2209719411
 C        -5.9316082230        7.0953963932       -0.3641546151
 C        -6.3109422809        8.1514339927        0.7609859608
 O        -5.7051632051        8.0689126034        1.8088533655
 C        -7.5621881459        9.1254722623        0.5630335412
 C        -8.6147895061        8.4001466447        1.5698849588
 O        -9.4175882523        7.6612199066        1.1425072025
 C        -8.5477309037        8.7906506715        3.0736374196
 C        -9.4476669533        7.9350686319        3.9636850760
 C       -10.8928568101        7.8866513882        3.4960383745
 O       -11.4804207687        6.8374806450        3.1691701252
 C       -11.7707080349        9.1303273846        3.5351442942
 C       -11.5283647448        9.9516912431        2.0701157155
 O       -10.7439923992       10.8467058495        1.9463521086
 C       -12.2581375417        9.4242182823        0.7679515069
 C       -13.2979626012        8.7917226829        3.6441361787
 C       -11.4170051785       10.0476848722        4.7108860667
 C        -7.2113028655       10.5578299323        1.0278061103
 C        -8.0683608798        9.0947499862       -0.8102805467
 C        -5.6444429172        4.3046830641        2.7620412952
 C        -6.3089567831        2.6527328807        0.9925588023
 C       -13.4601071675        2.3992790175        0.1149027367
 C       -13.3376927335        1.3216725266        2.4648243585
 C        -7.7517565315       -2.7540324159       -0.8921323789
 C        -6.1442680293       -0.9053306771       -1.5671172009
 C       -11.2341968033       -0.4503568058       -7.2219721749
 C       -12.4240302540        1.1819224169       -5.7543420324
 H       -13.9500324649       -0.4251336027       -3.9330610600
 H       -14.4246594803       -2.0391992656       -4.6314299498
 H       -14.4752087073       -0.5394596206       -5.5539319375
 H        -8.5612162973        0.4440388085       -6.0068612256
 H        -8.9706298600       -1.2213687582       -5.8849771649
 H        -7.9084461872        0.5303120854       -3.6566823174
 H        -6.8834681179       -0.4313488244       -4.5625459193
 H       -10.3103679336       -1.6100332711       -0.2379175147
 H       -10.3956403877       -1.3193563675       -2.0010665444
 H       -11.5808490679        0.8512949180       -1.6031800956
 H       -10.3121903651        1.2323182093       -0.3973251916
 H       -10.5915417489        1.3929527555        3.2273656943
 H       -10.5286957433        3.1722084243        3.4491908539
 H        -8.8053709237        2.0378757945        1.3633214125
 H        -8.3263565793        1.5675349313        2.9280375910
 H        -5.3271099359        5.0213438485       -0.5791687422
 H        -4.9295284398        5.6545710686        0.9156184973
 H        -6.6673720008        7.0495481547       -1.1637717300
 H        -4.9541855757        7.4393522924       -0.8167340126
 H        -8.7222150074        9.8752280881        3.2769355495
 H        -7.4859445378        8.7162535125        3.3735683798
 H        -9.4469670881        8.3534915599        4.9913043089
 H        -9.1035588014        6.9292392279        4.0541818161
 H       -13.1220759279        8.8401006046        0.8788362082
 H       -11.5853350357        8.7408994488        0.2582462198
 H       -12.3243248104       10.2851015464        0.1195704112
 H       -13.5680537538        7.9337863702        3.0876780114
 H       -13.7866510227        9.6477282954        3.1699586982
 H       -13.5551133374        8.5449426052        4.6557281109
 H       -10.5170907708       10.5185802433        4.4303959263
 H       -11.2142296581        9.5721727762        5.6497673217
 H       -12.1377978978       10.8206258769        4.9845625012
 H        -8.2055438091       11.0356068130        1.2452341045
 H        -6.7384654109       11.1273504176        0.2164101539
 H        -6.5132089915       10.6035924796        1.9130940044
 H        -8.9714389850        9.6925229899       -0.9387059738
 H        -8.2928017195        8.0904800426       -1.2043465071
 H        -7.3550978216        9.3665276749       -1.6021905781
 H        -5.8719032081        5.2732634342        3.2128025708
 H        -4.6215208827        4.2681224323        2.2948643775
 H        -5.4878856706        3.5637284699        3.5955261454
 H        -6.3245181611        1.8110451125        1.6363498458
 H        -5.2343289373        2.8238286339        0.7092012267
 H        -6.9230173522        2.4236477997        0.1110451079
 H       -14.3634372344        1.8670669574       -0.3673234204
 H       -12.8034828571        2.9132972300       -0.6303022926
 H       -13.9169292217        3.2055959392        0.7466620422
 H       -12.7597673008        1.6909574875        3.2700965786
 H       -13.3848824034        0.2060838364        2.5047303927
 H       -14.3119189936        1.8155638181        2.6090521821
 H        -7.3329697016       -3.5008824728       -1.6095579212
 H        -8.8663077501       -2.9653203179       -0.8114151626
 H        -7.2799880605       -2.7998389098        0.1300763526
 H        -6.0324723694        0.1376412443       -1.9530981213
 H        -5.4573622525       -1.5796064258       -2.0930425357
 H        -5.7684210905       -0.9065108596       -0.5553064177
 H       -10.8776603379       -1.4740542337       -7.2879863689
 H       -10.5712144164        0.2804924413       -7.7206290432
 H       -12.1425918229       -0.4087518735       -7.8263631846
 H       -11.8045018882        2.0187188843       -6.0982542101
 H       -12.7138298564        1.3998093168       -4.7406141324
 H       -13.2713556398        1.0164161459       -6.4503212255
 Na      -10.0567653999        5.4481854518        1.8519047975
