117

 C        -5.6124578348       -4.5739080193        4.4668154687
 C        -5.8790325834       -5.3015037507        3.1826051078
 O        -5.1000029647       -6.1188552412        2.8172349809
 C        -7.3101572044       -5.0087062048        2.5104393730
 C        -8.3286424998       -4.4170907069        3.5311492856
 O        -8.8399925107       -5.1830002016        4.3968245605
 C        -8.6401538874       -2.9186409552        3.4040793716
 C        -9.4754106544       -2.3730880435        4.5372494100
 C       -10.3578047933       -1.3235247435        3.9752810307
 O       -10.7424002978       -1.3880081809        2.8697897064
 C       -10.8159853901       -0.0718859922        4.7795429714
 C        -9.9180430069        1.0657664515        4.0949583811
 O        -8.7200368645        1.1876517695        4.3624713454
 C       -10.4450977226        1.9585210146        2.8983840137
 C        -9.3418337292        2.0508958164        1.8880815287
 C        -9.7578673252        2.7813978542        0.5881985665
 O        -9.3619800852        3.9140640664        0.3944345553
 C       -10.6001363976        2.0677089833       -0.5110376137
 C       -12.2128845732        2.4561861501       -0.2535642265
 O       -12.6422623244        2.4941656941        0.8808120416
 C       -13.2071942622        2.4345383084       -1.4909636798
 C       -13.9157652228        3.8089307510       -1.5860047274
 C       -12.9713015118        4.9871068648       -1.4550338165
 O       -12.0035472074        4.9276863396       -0.6810654296
 C       -13.2458930526        6.4172914457       -2.0612461500
 C       -12.1404377202        6.7124687773       -3.2536989958
 O       -11.0182279060        6.3258125620       -3.0855306745
 C       -12.4764929728        7.4659278149       -4.4931859989
 C       -11.2365081019        8.2889951450       -4.9518972080
 C       -11.0823394375        9.7105882048       -4.3567625503
 O       -11.9195075697       10.1490862587       -3.5525633231
 C        -9.6965171290       10.5638447117       -4.5607767184
 C        -8.9699689608       10.0385618169       -3.1744987713
 O        -8.2793946532        9.0620549925       -3.1720504092
 C        -9.0907029406       10.8436808232       -1.8827729149
 C        -8.2358982504       10.3566358176       -0.7845490701
 C        -8.3858210521        8.7665856826       -0.7739169571
 O        -9.5079673462        8.3018750300       -0.9273528060
 C        -7.1085380594        7.8923741937       -0.4543968108
 C        -6.9926556910        6.9781143222       -1.7719086116
 O        -7.8219991460        6.1086326145       -2.0281080815
 C        -5.9123256084        7.1460651313       -2.7933926895
 C        -5.7975781894        8.6273465462       -0.1820310383
 C        -7.4032125520        6.9656302783        0.7555044154
 C        -8.7668856072       10.0516632749       -5.8081421264
 C        -9.9757919640       12.0271110381       -4.7179931118
 C       -14.6507230360        6.5822403994       -2.6593315818
 C       -13.2495930630        7.3517189219       -0.7875792701
 C       -10.0294868848        2.3374702171       -1.8772083092
 C       -10.7569861073        0.4799504137       -0.3184097274
 C       -12.3188689553       -0.0206217529        4.4752172139
 C       -10.3601448630       -0.1743758217        6.2367253898
 C        -6.8833432907       -3.9706092675        1.4615982017
 C        -7.9217519233       -6.2003315206        1.8260164178
 H        -5.6146121184       -3.5274320895        4.1828119417
 H        -4.7030961792       -4.9010602108        4.9424489437
 H        -6.4027095639       -4.7988356911        5.1329253983
 H        -9.2974948022       -2.8868136892        2.4593754861
 H        -7.8256355301       -2.2193295649        3.1830443308
 H        -8.9125657133       -2.2592506840        5.5278478286
 H       -10.2411567792       -3.1235258354        4.8728017010
 H       -10.7177442554        2.9344505949        3.2456692301
 H       -11.3203928172        1.4709828159        2.4941222316
 H        -9.0104783166        0.9967810240        1.6773287249
 H        -8.5768432172        2.5288758690        2.4439363131
 H       -13.9013041756        1.7176629450       -1.0576899801
 H       -12.6743785529        2.2921701328       -2.4487372829
 H       -14.6917768077        3.9347398166       -0.8234590148
 H       -14.4236660845        3.8497470530       -2.6310390395
 H       -13.3803871051        8.0830015640       -4.1642294182
 H       -12.8057455900        6.8943052988       -5.4123265644
 H       -11.2067025856        8.3340637034       -6.0695268517
 H       -10.3477178810        7.7038045550       -4.7144373532
 H       -10.1712733546       10.6294798843       -1.5613981550
 H        -9.0388596674       11.8867331383       -2.0322668093
 H        -8.4395547120       10.8114841869        0.2135294138
 H        -7.2059943708       10.6719657010       -0.9821617514
 H        -6.1275816230        8.1700359841       -3.1860543119
 H        -6.0323351370        6.3708044279       -3.6345845155
 H        -4.9325023951        7.1242655418       -2.3624322504
 H        -5.8166207236        9.2954080853        0.7062089683
 H        -5.3544522620        9.2287332191       -0.9891188708
 H        -5.1210878113        7.8435635693        0.1093727054
 H        -7.0496794561        7.4151109441        1.6414533369
 H        -6.9469688777        6.0421114249        0.6547865826
 H        -8.4929674429        6.7328538120        0.7332309749
 H        -8.5859521262       10.8328595977       -6.4740597218
 H        -9.2157061672        9.2887491367       -6.4486641507
 H        -7.8834020950        9.6341923001       -5.3229103752
 H        -9.0609982689       12.5690101609       -4.4559121075
 H       -10.6774691085       12.4055534997       -3.9823209318
 H       -10.3751281927       12.3649036662       -5.7127370821
 H       -15.3908932878        5.9684368056       -2.0738707203
 H       -14.8357429137        6.2250933833       -3.6861452507
 H       -15.0581936240        7.6275859232       -2.5113923239
 H       -14.1631958593        7.0259276048       -0.1873572414
 H       -13.4084258662        8.3586800511       -1.1620719496
 H       -12.3476643123        7.4896946847       -0.1568017641
 H       -10.6218953004        1.7535126045       -2.6394630032
 H        -9.0124384834        2.0109847339       -2.0327986766
 H       -10.0857136743        3.3843418776       -2.0932272963
 H       -11.3568472329        0.3072332783        0.5369379850
 H        -9.8385967264        0.0249375450       -0.1016060962
 H       -11.3508263629        0.0813959307       -1.1615768809
 H       -12.6816002357       -1.0353327505        4.4019775567
 H       -12.5350046045        0.3789252794        3.5134291039
 H       -13.0216606104        0.5587814772        5.1289265739
 H       -10.7114624021       -1.0472152366        6.7367031936
 H       -10.8602975584        0.6773200280        6.6993747688
 H        -9.2926713794       -0.0274609660        6.2858592357
 H        -6.6021038263       -2.9816835856        1.8117844781
 H        -7.7195934062       -3.7923877225        0.7146501261
 H        -5.9192689190       -4.2327271712        1.0712644914
 H        -8.4563108965       -6.9040324458        2.4026974449
 H        -7.1117158448       -6.7430166705        1.3601884729
 H        -8.5073747319       -5.8234609445        0.9926966764
 Na       -9.8985805356        5.8009173414       -0.8808278414
