117

 C        -4.2372003089       12.6244458534        0.4346665423
 C        -4.9747181709       11.9682032856       -0.7086897405
 O        -6.1902456037       12.0913293105       -0.9111476678
 C        -4.1234488973       10.9199942535       -1.5467259765
 C        -3.3682579926        9.9602027963       -0.6031611151
 O        -2.1187001133       10.0129541545       -0.5378640825
 C        -4.2449371171        8.8151880618       -0.0189614150
 C        -5.5854134855        9.3427343484        0.6109388071
 C        -6.2991868866        8.0955075566        1.0721823636
 O        -6.6630453914        7.2275851413        0.2661192873
 C        -6.4860873868        7.7011718646        2.5829415860
 C        -8.0483281805        7.3053691593        2.8039053270
 O        -8.6880415802        8.1269537665        3.3824003999
 C        -8.7033483264        5.9874790341        2.2295782754
 C       -10.1783112002        6.3294202156        2.0840612235
 C       -11.0726258443        5.2064766661        1.5438364480
 O       -10.6912519725        4.0695020362        1.6640928593
 C       -12.4527535208        5.5849613788        0.8328958050
 C       -13.2920295363        4.2443026751        0.4602886135
 O       -12.8608481198        3.4415280110       -0.3258372185
 C       -14.7921093837        4.2081811204        0.7761142537
 C       -15.4322053201        2.8319397530        0.6016608652
 C       -14.5015348661        1.7316847088        1.1607042970
 O       -13.6705273901        1.9241922083        2.0617787731
 C       -14.8675410775        0.2881385426        0.8070296787
 C       -13.9143704439       -0.4660969856       -0.2623741158
 O       -12.6894847387       -0.4124193176       -0.2032135390
 C       -14.5020610367       -1.6202236442       -1.0263124364
 C       -13.4514592374       -2.6664098897       -1.4307386482
 C       -12.7617834265       -2.3342670310       -2.8096417932
 O       -13.0597708974       -1.3848175675       -3.4815111064
 C       -11.3992378213       -3.0054202013       -3.2134131538
 C       -10.2381147392       -2.0121887608       -2.6668994997
 O        -9.4876511826       -2.4014251501       -1.7847511825
 C       -10.0292180708       -0.6575861618       -3.3286396071
 C        -9.0255945341        0.2428207264       -2.6740019162
 C        -9.4813178809        0.6992774112       -1.2995112517
 O       -10.6095827606        1.0502812741       -1.0966176889
 C        -8.4057065182        0.4807264323       -0.0770468040
 C        -9.1984074892       -0.2891722762        0.9627414426
 O       -10.0709730228        0.3281129568        1.6261732341
 C        -8.8967816538       -1.7764046999        1.1097341261
 C        -7.0630313459       -0.1817719547       -0.4422365649
 C        -8.1622993474        1.9407883787        0.4908735371
 C       -11.0924548810       -4.3184249756       -2.4697405818
 C       -11.3075753474       -3.2726610897       -4.7678294808
 C       -14.8273830666       -0.5256124243        2.0835284927
 C       -16.3383295001        0.2285033875        0.2897312402
 C       -13.2203602474        6.5038769477        1.7740034947
 C       -12.2504170351        6.3567780618       -0.4290083952
 C        -5.6109986808        6.4659279836        2.7774785051
 C        -6.1518210106        8.9490633225        3.5498170403
 C        -5.0518041443       10.3138414272       -2.5955183462
 C        -3.0683344486       11.8566046837       -2.2646261433
 H        -3.8737035769       13.6476246130        0.1939108634
 H        -3.4211442255       11.9936355562        0.6818231444
 H        -4.9752731507       12.9061107956        1.2625080987
 H        -3.5626205495        8.2988242299        0.6734532290
 H        -4.5055466060        8.3062335656       -0.8759575703
 H        -6.1040214348        9.8384617924       -0.1229097683
 H        -5.4214275529       10.0445020779        1.4208347203
 H        -8.4107046152        5.0949430720        2.9274494460
 H        -8.1969071630        5.8594401983        1.2517386319
 H       -10.0575385636        7.1296754980        1.3348655245
 H       -10.5346842286        6.7869807106        2.9761869645
 H       -15.1788847879        4.8700810908       -0.0059121821
 H       -14.9579782452        4.5888538339        1.7699670593
 H       -15.6243567399        2.6611836464       -0.4599445782
 H       -16.3509186839        2.6959380468        1.2222183155
 H       -14.7799643653       -1.3509573338       -2.0532804918
 H       -15.2896786411       -2.0599147248       -0.4003140211
 H       -13.8920447444       -3.6677633539       -1.4838544253
 H       -12.5801323861       -2.6829502495       -0.7596529415
 H       -10.9938761389       -0.2032909216       -3.2328442223
 H        -9.8168507704       -0.8105944188       -4.3795104191
 H        -8.9039668484        1.1822202177       -3.2583223249
 H        -8.0125353667       -0.2642069546       -2.6824360722
 H        -8.9337499065       -2.1939301285        0.1031492269
 H        -9.6759400444       -2.2824400866        1.6852552668
 H        -7.8985114449       -1.9696520363        1.4522996426
 H        -6.4672235122        0.3802676880       -1.1552000995
 H        -7.1801601195       -1.2333374051       -0.8926936565
 H        -6.4909566891       -0.2656076997        0.4165356206
 H        -8.9524274556        2.4296839782        0.9939194121
 H        -7.9532976303        2.5821595571       -0.3616408487
 H        -7.2359972664        2.0448019650        1.1364773603
 H       -11.6574190451       -5.1576836949       -2.9254833385
 H       -11.3636096474       -4.2360692939       -1.3644906358
 H       -10.0298991421       -4.4765615578       -2.5804066569
 H       -11.4512353598       -2.3344277223       -5.3134237324
 H       -12.0526153092       -3.8744882374       -5.2336124528
 H       -10.4162063989       -3.7817944033       -5.0014219259
 H       -15.5763143356       -0.2503798123        2.8030770943
 H       -13.9055167687       -0.3177919249        2.6390102576
 H       -14.8681252984       -1.5918478128        1.8465420060
 H       -16.9805229625        0.4184682859        1.1298649739
 H       -16.5315838372       -0.8218048703        0.1085980072
 H       -16.5187486783        0.8426716858       -0.5703902431
 H       -13.8420610345        7.3268579802        1.3188685759
 H       -12.4747535344        6.9523682542        2.4585127581
 H       -13.8760796092        5.9196389284        2.4594465585
 H       -11.4522282253        6.0044418523       -1.0473551371
 H       -11.8366911336        7.3016844689       -0.1237153321
 H       -13.2007911208        6.6242218897       -0.9112180283
 H        -4.5418415095        6.6489411965        2.5883662034
 H        -6.0708164501        5.6727747353        2.2103794308
 H        -5.6882148034        6.0957601351        3.8052040766
 H        -6.7909853452        9.7939157746        3.2622616601
 H        -5.1576131748        9.2470049964        3.2984130375
 H        -6.2968917322        8.6580147382        4.5951944533
 H        -5.9335834356        9.7716089805       -2.1601367237
 H        -4.4251816913        9.5670169804       -3.1182499226
 H        -5.2765436522       11.1729620011       -3.1772780413
 H        -3.4578220087       12.8647077554       -2.4433291243
 H        -2.6802471436       11.5805807390       -3.2507193879
 H        -2.1104773165       11.9719396143       -1.6653831442
 Na      -11.5442270482        1.9094281261        0.9217995844
