117

 C       -13.6491995182       -1.0624360277       -4.2798436753
 C       -12.2524211715       -1.2212071604       -4.8662066448
 O       -11.6540182354       -2.2132040588       -4.6010812105
 C       -11.5701821139       -0.0944192120       -5.7255893684
 C       -10.2602829499        0.2418515394       -4.8197992862
 O       -10.2257812958        0.9399308945       -3.8548336136
 C        -9.0273203410       -0.6375705610       -5.2547658059
 C        -7.9025804603       -0.5334159215       -4.2444139144
 C        -8.2027179978       -1.6153637799       -3.1687608003
 O        -8.6818389155       -2.7257687704       -3.4465812121
 C        -7.6011370847       -1.3291865097       -1.7273152290
 C        -8.6339873481       -0.4505397322       -0.8579259860
 O        -8.2811772269        0.5724073322       -0.3147122423
 C       -10.1497967569       -0.7875841753       -0.7676495871
 C       -11.1005565177        0.4843480621       -0.5335046969
 C       -11.8683396812        0.3956759269        0.8209181349
 O       -11.9327637249       -0.6488660866        1.4398936377
 C       -12.6388991543        1.7098938273        1.3023164925
 C       -11.5329872455        2.7017181203        1.7273378390
 O       -11.4162427975        3.8498213692        1.2247341537
 C       -10.4329807843        2.2586308270        2.7294741782
 C        -9.0440669361        2.2171465873        1.9986298668
 C        -8.2851327500        3.4467304055        2.4098505451
 O        -8.7806647346        4.1431080092        3.2737889995
 C        -6.8517727710        3.7888769912        1.8529660491
 C        -6.9096810628        5.0137090035        0.8251582147
 O        -7.9664378842        5.4370513104        0.3234407407
 C        -5.6560385440        5.6727079617        0.2578192524
 C        -6.0156786596        7.0594828594       -0.3835375790
 C        -6.4805027896        8.1120082334        0.7335213308
 O        -5.7869826821        8.2799019086        1.6933662991
 C        -7.6542835921        9.1887334721        0.4835518293
 C        -8.7002343016        8.5100237728        1.4397236059
 O        -9.5714135346        7.7641755949        1.0268911645
 C        -8.5077327611        8.6755045036        2.9671421083
 C        -9.4020962030        7.8622491086        3.9434911314
 C       -10.8766859120        7.8925129829        3.4863324143
 O       -11.5035460313        6.9078037286        3.0916187375
 C       -11.6539474050        9.3400533695        3.3531996702
 C       -11.1960251196        9.9224547044        1.9725998310
 O       -10.3653596543       10.7971840779        1.8684569988
 C       -11.9380903036        9.5218375871        0.6753187326
 C       -13.1269139532        8.9022285896        3.3434051977
 C       -11.2832705627       10.2655081340        4.5090398215
 C        -7.1428893164       10.5899231316        0.9164559425
 C        -8.0735442179        9.2481224518       -0.9950098648
 C        -5.9849743033        4.0996587883        3.1152872431
 C        -6.3111109235        2.6395456430        1.0176759464
 C       -13.4229196239        2.2303192035        0.1015290631
 C       -13.6084566874        1.3101422901        2.4521789144
 C        -7.6161484204       -2.7273208071       -1.0341495340
 C        -6.2430322527       -0.6194439043       -1.7989729115
 C       -11.3864608060       -0.7286458776       -7.1309188142
 C       -12.2661864000        1.3318513803       -5.8844263926
 H       -13.7856770887       -0.2409209233       -3.6559518675
 H       -13.8381579235       -1.9968480583       -3.7156716101
 H       -14.4417077711       -0.7781212106       -4.9329996561
 H        -8.7076566000       -0.2850480885       -6.2549936270
 H        -9.3247411549       -1.6314497776       -5.4620548648
 H        -7.8225076629        0.4459590270       -3.8495491685
 H        -6.9989285765       -0.6644230818       -4.8359178143
 H       -10.2682854434       -1.5585293980       -0.0057869843
 H       -10.4877559212       -1.1717894760       -1.6772977798
 H       -11.9820694655        0.5919550927       -1.2229359315
 H       -10.4932428948        1.3630249422       -0.5972173176
 H       -10.6316327948        1.2418878434        3.1513856116
 H       -10.4106470843        3.0590121242        3.4955897599
 H        -9.2021498447        2.0939508088        0.9243321798
 H        -8.5542102041        1.3021067574        2.3776620028
 H        -5.1825561399        4.9925598948       -0.4845657479
 H        -4.8187851156        5.7192278987        1.0384266563
 H        -6.7330094339        6.8779460379       -1.1687679113
 H        -5.1877372243        7.5715307529       -0.8209010710
 H        -8.5173365836        9.7069342967        3.1882716936
 H        -7.4292288057        8.4693895905        3.1538589172
 H        -9.3987212555        8.2461338700        4.9964249302
 H        -9.0441906930        6.8344219542        4.0240873534
 H       -12.9633577594        9.7828190343        0.7203765134
 H       -11.9414732833        8.3939421533        0.4208653173
 H       -11.3810119526       10.0287017481       -0.1473974005
 H       -13.3571440970        8.2801916954        2.4891083706
 H       -13.8331836770        9.7830132689        3.3032022535
 H       -13.3270106355        8.3463006080        4.3050462869
 H       -10.2182778575       10.3702375471        4.7366390849
 H       -11.8286897071       10.0310623343        5.4272335793
 H       -11.5981631706       11.3194113168        4.2905972621
 H        -7.9343227031       11.2789634405        1.1801769078
 H        -6.6362006644       10.9460336137        0.0804810023
 H        -6.5214312042       10.4143896755        1.8069631170
 H        -8.8341069174        9.9277488197       -1.1209141021
 H        -8.5606278144        8.3615688675       -1.4065985969
 H        -7.3077904679        9.4216858478       -1.7020558411
 H        -6.2846876468        4.9331170120        3.7036473383
 H        -4.9755208935        4.2887530382        2.8135725860
 H        -5.9556561941        3.2289885004        3.7508648328
 H        -6.1041316422        1.7582262565        1.5906709710
 H        -5.3045382780        3.0447908216        0.6461860491
 H        -6.9222525854        2.2949465873        0.1997797512
 H       -13.9644673209        1.3906998765       -0.2328135988
 H       -12.8161590044        2.6204324460       -0.6554820710
 H       -14.0876387782        3.0082904019        0.3506937923
 H       -13.2499125472        0.4609354981        2.9582180901
 H       -14.6128043250        1.0295219287        1.9512682765
 H       -13.5945015697        2.1272252440        3.1691613982
 H        -6.7264733981       -3.2398635130       -1.2272489600
 H        -8.4138809121       -3.2837378445       -1.3997864160
 H        -7.7122781176       -2.5322963982        0.0054656782
 H        -6.3335275592        0.4686150112       -2.1562234209
 H        -5.5145537075       -1.2769049428       -2.2031781935
 H        -5.8865681248       -0.4137028752       -0.8188637610
 H       -10.8663882396       -1.6996704810       -7.0113042908
 H       -10.7469243094       -0.0526629261       -7.7302409584
 H       -12.3430057427       -0.8968531726       -7.6032482466
 H       -11.5738600546        1.9428591346       -6.4586047620
 H       -12.3920304879        1.7796166638       -4.8737905822
 H       -13.2395301252        1.1390269174       -6.2668820853
 Na      -10.0159799721        5.6413655131        1.7993854298
