117

 C       -13.3871576341       -0.6772444658       -3.6364182704
 C       -12.3704840142       -1.2236146082       -4.5838252267
 O       -11.9123341120       -2.3831968758       -4.5393823226
 C       -11.6525964300       -0.1288930024       -5.5799634873
 C       -10.2487647922        0.1692386769       -5.0172982234
 O       -10.0134131259        1.2504399932       -4.4352337961
 C        -9.1731428878       -0.8693489011       -5.1174718698
 C        -8.1423814687       -0.7068008210       -4.0297546776
 C        -8.2915094295       -1.7232196907       -2.9254813851
 O        -8.8821930365       -2.7368214228       -3.1359657942
 C        -7.6574482064       -1.3158935157       -1.4557887471
 C        -8.7146649063       -0.3991588852       -0.8041849247
 O        -8.4568045947        0.7508787509       -0.4844495317
 C       -10.1174148752       -1.0232685687       -0.9112494520
 C       -11.1720986703        0.1087780366       -0.7142862611
 C       -11.7893338245        0.1114027758        0.7204773063
 O       -11.7011151553       -0.8305472020        1.4758321056
 C       -12.5339393504        1.5152329270        1.1510977694
 C       -11.5687032453        2.5682002016        1.5936893062
 O       -11.5168046289        3.6969103634        1.1409666447
 C       -10.6373358895        2.2567034982        2.7267464684
 C        -9.1349705191        2.2225259552        2.2624939907
 C        -8.3612515195        3.5252384094        2.6463183253
 O        -8.9136809665        4.3918867891        3.3350612561
 C        -6.8752652328        3.6969954091        2.0586550492
 C        -6.9638147434        4.9355622674        1.0045118642
 O        -8.0551426521        5.3781460705        0.7321786332
 C        -5.7379055162        5.4994912661        0.3030083574
 C        -5.9785240223        6.8902067258       -0.3782653726
 C        -6.1838894832        8.0874057993        0.5770681938
 O        -5.3468221701        8.3376762835        1.4636674274
 C        -7.4839342242        9.0370596836        0.4116069502
 C        -8.6121926950        8.3175418696        1.3511059506
 O        -9.4745725993        7.6699375802        0.8578525595
 C        -8.4366666068        8.6440415994        2.8214288039
 C        -9.5624294787        7.9489444253        3.6619371133
 C       -10.9817759323        8.2276012555        3.1850036484
 O       -11.5982722968        7.2894160717        2.6370932230
 C       -11.5802542775        9.6108758131        3.1751739763
 C       -11.1568371450       10.3107522113        1.7255680456
 O       -10.2212654234       11.0748004603        1.6715385303
 C       -11.9429887000        9.8956309841        0.5413370000
 C       -13.0801145430        9.3330000935        3.3816460162
 C       -11.1026854324       10.5585209740        4.3393062738
 C        -7.0264363445       10.4549948518        0.8589122354
 C        -7.8081848163        9.0968415280       -1.0660826323
 C        -5.9739256299        4.0525745809        3.3022924290
 C        -6.2428170503        2.4687993507        1.2557147930
 C       -13.2999622842        2.0535980703       -0.0727723681
 C       -13.3829203819        1.2168388849        2.3767079110
 C        -7.4233243781       -2.6999125401       -0.7574770507
 C        -6.3067368602       -0.5979703856       -1.6714131791
 C       -11.5797983688       -0.8876681384       -7.0144626431
 C       -12.3662147204        1.2704514075       -5.7513090113
 H       -13.1232998000        0.2101294005       -3.0656812530
 H       -13.7060420113       -1.3818443476       -2.9276722204
 H       -14.2050976712       -0.2425426561       -4.1826013841
 H        -8.8271604323       -0.9552145215       -6.1319213904
 H        -9.7191714326       -1.8262357732       -4.9644091450
 H        -8.1927528401        0.2875237492       -3.6958630624
 H        -7.1783530959       -0.8416213754       -4.3972834453
 H       -10.3704859633       -1.8143688558       -0.2626679258
 H       -10.3283854284       -1.3058310099       -1.9343003602
 H       -12.0636187654        0.0770325600       -1.4031803672
 H       -10.8515616828        1.1193778666       -0.7253061002
 H       -10.9518727178        1.2908501024        3.1842816011
 H       -10.7740439252        3.0828248277        3.4550343610
 H        -9.1820607722        1.9515555882        1.1988404895
 H        -8.6445217796        1.3585712813        2.7393582434
 H        -5.2213928015        4.8167404430       -0.4887846006
 H        -4.9229258486        5.6631606679        1.0276142340
 H        -6.7250812710        6.8651856751       -1.1434061156
 H        -5.0355609295        7.0671974403       -0.9049366897
 H        -8.5754562038        9.7314259741        2.9118335552
 H        -7.4909732055        8.4582143404        3.2885368034
 H        -9.3777832787        8.2926359668        4.7084264208
 H        -9.5235501845        6.8659201106        3.6204171999
 H       -12.3426294164       10.7851350495       -0.0790512056
 H       -12.6658982656        9.2074051985        0.8389867343
 H       -11.3098307873        9.2610836597       -0.0949502811
 H       -13.3736517165        8.4153821296        2.8303722657
 H       -13.7098332893       10.1577175941        3.0521296275
 H       -13.3806493246        9.2637817023        4.4086808059
 H       -10.2152792175       11.1071162381        3.9977840008
 H       -10.7494187550       10.0181919720        5.2469665026
 H       -11.8348257344       11.3367429632        4.6235929583
 H        -7.7735457119       11.1799528119        0.6635401669
 H        -6.1400072714       10.6864162247        0.2470186379
 H        -6.7584444419       10.3941388136        1.8673525456
 H        -8.4901834039        9.8928351722       -1.3944499817
 H        -8.3257386549        8.2300151198       -1.3485330493
 H        -6.9625638831        9.2620306382       -1.6973838232
 H        -6.4476123515        4.7782853353        3.9082741273
 H        -5.0643891904        4.5606914077        3.0585222725
 H        -5.8019185965        3.2260907880        3.9392298095
 H        -5.9054291283        1.6572810567        1.9207491314
 H        -5.4246330699        2.7165937992        0.6322170206
 H        -6.9858918121        1.9715980991        0.5890361324
 H       -14.1327330108        1.4550101620       -0.3841958367
 H       -12.6180650491        2.0880924799       -0.8701758863
 H       -13.6154082030        3.0241518291        0.1548398905
 H       -12.9732583901        0.3206755465        2.8853433203
 H       -14.3053812070        0.9099997417        2.0840019878
 H       -13.4542050238        2.1620886854        2.9762298477
 H        -6.9893816415       -3.3427486632       -1.4546929052
 H        -8.4027381855       -3.0977197644       -0.5694659225
 H        -6.8037886955       -2.6151151580        0.0532727488
 H        -6.5207128880        0.2860650934       -2.2038545878
 H        -5.6549630688       -1.2897719830       -2.2925063879
 H        -5.7691516448       -0.3074355023       -0.7091416732
 H       -10.9821667636       -1.7573242246       -7.0175658566
 H       -11.1126008077       -0.2053516413       -7.7133825442
 H       -12.6250491057       -1.0843882489       -7.2767337879
 H       -11.6403545190        1.9107241578       -6.2620912877
 H       -12.6972590936        1.6194329634       -4.8085764756
 H       -13.2465023929        1.0168202173       -6.4118135226
 Na      -10.3266647790        5.6582699963        1.8663939329
