117

 C       -13.5533549410       -0.4862190693       -3.6980185073
 C       -12.5086503729       -1.1237297470       -4.5846363941
 O       -12.2523934658       -2.2758092488       -4.4055638500
 C       -11.7599517420       -0.1938771030       -5.6812991370
 C       -10.3093980224        0.1070909977       -5.0831841281
 O       -10.0655872045        1.2251884567       -4.6808686469
 C        -9.3107991087       -1.1098159131       -5.0575760969
 C        -8.1056568248       -0.9624100473       -4.1150095866
 C        -8.1711938832       -1.8847233000       -2.9507525720
 O        -8.5434997633       -3.0535458207       -3.0452796377
 C        -7.5959868292       -1.3821027047       -1.4161997224
 C        -8.6803635643       -0.3675455790       -0.9096332627
 O        -8.3974921618        0.8148639187       -0.6881354609
 C       -10.0882732547       -1.0147270752       -0.6509224903
 C       -11.2124971479        0.0133107977       -0.6189414729
 C       -11.6768681557        0.2066421075        0.8517342532
 O       -11.2938040380       -0.5117065876        1.7911104416
 C       -12.5321227881        1.5129874131        1.1951314842
 C       -11.5629522477        2.4405624586        1.6863779977
 O       -11.2386774409        3.4134264970        1.0138205263
 C       -10.7493625422        2.2352679418        2.9614367516
 C        -9.1890193120        2.1736189086        2.7137380485
 C        -8.4668850511        3.5797086450        2.8163681883
 O        -9.0263232940        4.5092981275        3.3929488261
 C        -6.9492306185        3.7876065026        2.2767566825
 C        -6.9830864283        4.8792915468        1.1144291108
 O        -8.0582198528        5.2826827284        0.6729748277
 C        -5.6327349680        5.3175427424        0.4557594778
 C        -5.9101745863        6.5933137965       -0.3642725602
 C        -6.1529347870        7.7647874766        0.5480843112
 O        -5.3769439548        7.9425389786        1.4513552833
 C        -7.3200932483        8.9317323753        0.3100566496
 C        -8.4677572206        8.4147039480        1.2473578319
 O        -9.2789894166        7.6903261033        0.7516245982
 C        -8.4842378722        8.7163424202        2.7137125034
 C        -9.6486969585        8.0585692746        3.5175584402
 C       -11.0901275911        8.4231126055        3.0222548651
 O       -11.7634860617        7.5799887037        2.3761696687
 C       -11.5412916265        9.8645256587        3.0992718170
 C       -11.3176464241       10.5803280975        1.6291533474
 O       -10.4708055948       11.4294975069        1.5624469569
 C       -12.0695897610       10.0374249336        0.4713127105
 C       -13.0072198418        9.9425623007        3.4930511711
 C       -10.8351238844       10.7735628854        4.1311080284
 C        -6.5709210412       10.3047896415        0.6809181569
 C        -7.6975895881        8.8894504999       -1.2319653320
 C        -5.9833199171        4.2221234517        3.3629101960
 C        -6.4732654692        2.4673483740        1.6082282938
 C       -13.3717755526        2.1005665853       -0.0293632147
 C       -13.4597701698        1.0893159944        2.3605365509
 C        -7.4726132319       -2.6935559160       -0.5800095633
 C        -6.2494705488       -0.6846173798       -1.5733057859
 C       -11.6537348618       -0.8627971338       -7.0551888069
 C       -12.5143754273        1.1797585513       -5.7753281883
 H       -13.5655370970        0.5726419831       -3.3516412709
 H       -13.6841937251       -0.9931874832       -2.8198122256
 H       -14.5056713025       -0.6987349254       -4.2033355861
 H        -8.8320190865       -1.1743634125       -6.0456447424
 H        -9.7896424194       -2.1489183003       -4.9065684862
 H        -8.0351283726        0.0910521201       -3.6989598081
 H        -7.1948167585       -1.2064330994       -4.5948324838
 H        -9.9732570816       -1.5914348190        0.2624798967
 H       -10.3547264486       -1.7014978858       -1.4948402720
 H       -12.2193054357       -0.1660515885       -1.0740275107
 H       -10.8605606881        0.9507840933       -1.0413384321
 H       -11.0244919750        1.2798714708        3.4583987163
 H       -10.9933159119        2.9722949273        3.7704618529
 H        -8.9100032705        1.6580041700        1.7399005144
 H        -8.8027533879        1.4097630469        3.4761509048
 H        -5.2333056760        4.4529827967       -0.1549880805
 H        -4.9088390060        5.5790273646        1.2060721560
 H        -6.7221737953        6.3905629727       -1.0278246197
 H        -5.0673588044        6.9523595192       -0.9583887937
 H        -8.4670551759        9.8062771952        2.8893725188
 H        -7.5826762463        8.2756627555        3.0821479026
 H        -9.7314693084        8.2800867789        4.5897111869
 H        -9.4948625955        6.9828506760        3.3882225437
 H       -11.9105106281       10.7391936697       -0.3905136834
 H       -13.1140870621        9.7682390106        0.6961138438
 H       -11.5742991900        9.1128417120        0.2070565290
 H       -13.7153048588        9.3071562224        2.9562490328
 H       -13.4213543452       10.9085873569        3.5116241108
 H       -13.0454937994        9.5342177790        4.4601335533
 H        -9.7442361304       10.7184882691        4.1342916438
 H       -11.1118569335       10.4311770040        5.1291472537
 H       -11.1681787766       11.7794253415        3.9945104972
 H        -7.2443109481       11.1177697034        0.7377908301
 H        -5.8653402006       10.4334084807       -0.1663772306
 H        -5.9131389086       10.1642281546        1.4768317918
 H        -8.4219792498        9.7551040868       -1.4683556676
 H        -8.0736710732        7.9301663934       -1.5966991988
 H        -6.8577576615        9.2183365836       -1.8813562115
 H        -5.9860425320        5.2917646119        3.6429913255
 H        -4.9555496495        3.9764649889        3.0564393033
 H        -6.0241216007        3.6655373320        4.2898971344
 H        -6.5064128480        1.6020697998        2.2866756176
 H        -5.4553387858        2.5159648312        1.4453344107
 H        -6.8766500423        2.2543662149        0.6281851361
 H       -13.8989204116        1.2886624196       -0.4855914325
 H       -12.6527707422        2.4008785625       -0.8016928385
 H       -14.1142154156        2.8541436378        0.2975235745
 H       -12.8743733143        1.0221443792        3.2920446925
 H       -13.9191073002        0.1517597288        2.0996837107
 H       -14.3097419115        1.7456063267        2.3742594653
 H        -6.3735902720       -2.8317505947       -0.4660542641
 H        -7.9479579468       -3.5379899948       -1.1033028016
 H        -7.8976024733       -2.4923322044        0.4206887485
 H        -6.2505100360       -0.0080591692       -2.3653636915
 H        -5.5446813832       -1.4112547005       -2.0094328256
 H        -5.9289271913       -0.3328449561       -0.5602295825
 H       -11.2564938192       -1.8307802868       -6.8437571161
 H       -10.9254432748       -0.3202009975       -7.6453228053
 H       -12.6148158380       -0.8994745481       -7.5983521658
 H       -12.4179344122        1.6461206490       -6.7459459467
 H       -12.1492318091        1.7754871032       -4.9796281080
 H       -13.5816896762        0.8877441198       -5.6952718950
 Na      -10.4300557160        5.6167410444        1.5834607208
