117

 C       -13.6734169344       -0.4339247431       -3.7689912563
 C       -12.5386463058       -1.0637901194       -4.5809554143
 O       -12.1552394109       -2.1858192551       -4.5015121533
 C       -11.7930200297       -0.1799515975       -5.6414874927
 C       -10.3638282293        0.0118474273       -5.1293976132
 O       -10.0338096973        1.0393337762       -4.6140280214
 C        -9.3497575854       -1.1498319452       -5.0359741383
 C        -8.2029767166       -0.8960546885       -4.0904645689
 C        -8.1245074935       -1.9211780575       -2.9190758321
 O        -8.4137002382       -3.0838897515       -3.0104352396
 C        -7.5947493081       -1.4206883283       -1.5325239494
 C        -8.7188281515       -0.4436232526       -0.9300298986
 O        -8.3898293120        0.7216990429       -0.6646337506
 C       -10.0659567380       -0.9861045879       -0.6258114625
 C       -11.1861760768        0.0281451139       -0.5272599477
 C       -11.6717399058        0.2300339170        0.9549491247
 O       -11.1483107525       -0.3704063404        1.8453726109
 C       -12.5464356194        1.4543289622        1.2635742973
 C       -11.4293578871        2.5508216541        1.7050570959
 O       -11.2420719327        3.5144560402        1.0162927101
 C       -10.6363179446        2.2426690874        3.0011035375
 C        -9.1474875925        2.2575182042        2.7435862906
 C        -8.4814816479        3.6205694904        2.8245737453
 O        -9.0363681495        4.6140109763        3.3002209725
 C        -6.9842911203        3.6980467913        2.3165466733
 C        -7.1293485525        4.7431583088        1.1005397562
 O        -8.1276163194        5.2712734504        0.6486653545
 C        -5.8226623280        5.1988957720        0.4881300775
 C        -5.9477705813        6.4990434871       -0.3509126782
 C        -6.0758009451        7.7394193848        0.5585805720
 O        -5.5096568276        7.8759276092        1.5943418747
 C        -7.1697875751        8.8322963424        0.2402009249
 C        -8.3555545157        8.4317700725        1.1816681294
 O        -9.2572984350        7.6960855390        0.6889867045
 C        -8.4165048611        8.8109930012        2.6458061183
 C        -9.5611754942        8.0511072499        3.3699880898
 C       -10.9564725307        8.5094487641        2.8679901774
 O       -11.7238432429        7.6920302265        2.3833733746
 C       -11.5130487802        9.9618434123        3.1437382451
 C       -11.2634070555       10.6147952988        1.6420764197
 O       -10.4888767804       11.5355073570        1.4942563017
 C       -12.0943232147       10.0070652258        0.4431675186
 C       -13.0518611767        9.8371572170        3.4471565641
 C       -10.7558569597       10.8406989740        4.1030511264
 C        -6.6161497264       10.2152435087        0.6746554279
 C        -7.7491907519        8.8424520712       -1.1826146960
 C        -6.1186695634        4.1330450359        3.4916066167
 C        -6.4451329670        2.4098768530        1.7067470672
 C       -13.2399184406        2.0818925334        0.0472336005
 C       -13.6190108671        1.1146956519        2.4368093139
 C        -7.5231587514       -2.6149764378       -0.6026277487
 C        -6.2299745135       -0.7077514047       -1.7085327573
 C       -11.6716978307       -0.9988556294       -6.9740696424
 C       -12.4671436472        1.2141884572       -5.8015352945
 H       -13.5234875479        0.5812902436       -3.5187498718
 H       -13.7316371527       -0.8525968876       -2.7578652517
 H       -14.6539692687       -0.6317044789       -4.1062860463
 H        -8.9232545021       -1.4634423300       -5.9729995503
 H        -9.8623721036       -2.0569414021       -4.6593529599
 H        -8.4299664808        0.0192370303       -3.6751775048
 H        -7.2469155555       -0.8290689670       -4.4997098392
 H        -9.9634984390       -1.5180623279        0.2971305556
 H       -10.3639654664       -1.6976344346       -1.3912030632
 H       -12.0987455906       -0.2835089159       -0.9647910859
 H       -10.9723000495        1.0349606184       -1.0319300620
 H       -10.9382580154        1.2710701824        3.3648622063
 H       -10.8643920926        2.9077491233        3.8897232851
 H        -8.8959150758        1.8649310332        1.7518303283
 H        -8.6805199745        1.5060739404        3.3905409513
 H        -5.5656076258        4.3489740824       -0.2194506762
 H        -4.9228893732        5.3879396115        1.1524347364
 H        -6.7997766927        6.4257009831       -1.0400482195
 H        -5.0525852104        6.5916456035       -0.9338158528
 H        -8.6639249905        9.8792405304        2.7150415867
 H        -7.4778593875        8.5907217614        3.0883839221
 H        -9.7065884284        8.1841196343        4.4306600922
 H        -9.4406751287        6.9435268584        3.1696191411
 H       -11.8307106047       10.6392273548       -0.3605689517
 H       -13.2290148937       10.1051865191        0.6821390649
 H       -11.9172919190        8.9727976328        0.1134825385
 H       -13.5339851483        9.0642550423        2.8849889845
 H       -13.6130263247       10.7196558797        3.2214456943
 H       -13.2254606718        9.5018557268        4.4578310849
 H        -9.6636599579       10.9159630807        3.8595120191
 H       -10.7545137768       10.2945151552        5.0586117689
 H       -11.2022909210       11.8160778696        4.2360507033
 H        -7.3276663938       10.9408568224        0.3896679949
 H        -5.6647657276       10.3936563994        0.2769693963
 H        -6.4261686082       10.1652021603        1.7256738297
 H        -8.3414460865        9.7301660667       -1.3413884346
 H        -8.3689040243        7.9404547119       -1.3033337846
 H        -7.0350646845        8.8113351251       -1.9899334529
 H        -6.3663136292        5.1052398534        3.8839284384
 H        -5.0991281801        4.1273819876        3.2288995273
 H        -6.1042960067        3.4521419624        4.2962228293
 H        -6.1632274420        1.7653570619        2.5419503149
 H        -5.4799648772        2.5514668793        1.2244874167
 H        -7.0302020557        1.9113310824        0.9773398699
 H       -14.0646222584        1.6062523017       -0.3538568092
 H       -12.5092334859        2.2435610308       -0.7151328515
 H       -13.5635527278        3.0271545961        0.4614592313
 H       -13.0334276161        0.8831015717        3.3053225265
 H       -14.3527051145        0.2765095428        2.0853775133
 H       -14.2796679028        1.9076071978        2.5920211992
 H        -6.4898055060       -2.6917973484       -0.3500293664
 H        -7.8691241197       -3.4711770714       -1.0824399261
 H        -8.0819070822       -2.4093365461        0.2942933036
 H        -6.2762613730        0.1083643164       -2.5023309244
 H        -5.5371061261       -1.3373966105       -2.2029878683
 H        -5.9239065707       -0.4529838888       -0.7064350191
 H       -11.2485234237       -1.9774596964       -6.7007754824
 H       -11.0402335865       -0.4620287684       -7.6501495922
 H       -12.6326802683       -1.1059930144       -7.4395830485
 H       -12.0107047076        1.6940897673       -6.6716946183
 H       -12.1388110139        1.7729408956       -4.8831910167
 H       -13.5118877834        1.1184983066       -6.0033538798
 Na      -10.5181803948        5.6943341674        1.4845820324
