117

 C       -13.7804005279       -0.4451297782       -3.8401183596
 C       -12.5811298598       -1.0419234132       -4.5708105189
 O       -12.2308819597       -2.1855068317       -4.3587448979
 C       -11.7870249176       -0.1890303527       -5.7264963801
 C       -10.3177824646        0.0006707684       -5.0788457012
 O       -10.1676351396        1.0548629122       -4.4788460524
 C        -9.4444233897       -1.1926751810       -4.9157245687
 C        -8.2118533557       -0.9281666751       -4.0095558164
 C        -8.1467080457       -2.0390675996       -2.9461530805
 O        -8.3193442981       -3.2429946003       -3.1666345351
 C        -7.6325642346       -1.4643482601       -1.5291261125
 C        -8.6401775841       -0.5374981855       -0.8779657880
 O        -8.4318438589        0.6346835841       -0.6368767075
 C       -10.0641243542       -1.0531065837       -0.6001251515
 C       -11.0901406281        0.0571711810       -0.4159080370
 C       -11.4634066217        0.3519021431        1.0069763726
 O       -11.0450789599       -0.2991253835        1.9788260489
 C       -12.4307960674        1.5295073765        1.2635845129
 C       -11.4936175491        2.7013671099        1.8814898218
 O       -11.3100627741        3.7739106266        1.2864661257
 C       -10.8255721943        2.4294653602        3.2043153872
 C        -9.3286412873        2.1945056996        2.8356869157
 C        -8.5945824911        3.5278546716        2.7620049206
 O        -9.1720650702        4.5407983216        3.1114537573
 C        -7.0829362191        3.7027707375        2.3650745152
 C        -7.1000480216        4.6915455290        1.1146008904
 O        -8.1716625305        5.1293714661        0.6982208093
 C        -5.8898500336        5.0676547992        0.3929632302
 C        -5.9668476935        6.4570189607       -0.3231350140
 C        -6.1986155156        7.6085773531        0.6409109848
 O        -5.6299020971        7.5563281800        1.7162125243
 C        -7.1947405903        8.7665853073        0.2283070151
 C        -8.4822964901        8.4041038082        1.0092305392
 O        -9.2752525739        7.6584366487        0.5630711924
 C        -8.4107147278        8.8994585441        2.4870238561
 C        -9.3902950268        8.2700908855        3.4822747194
 C       -10.8125848270        8.5244006277        2.8609565682
 O       -11.4644062330        7.6332471510        2.3050551080
 C       -11.4597810544        9.9363627193        2.9897455173
 C       -11.2607558141       10.6248851018        1.5418285493
 O       -10.5379349720       11.5864198447        1.4281034320
 C       -12.1837957484       10.1553576134        0.4403087685
 C       -12.9970654726        9.8557376000        3.3144280696
 C       -10.7641561482       10.7938465476        4.1263943834
 C        -6.5514337148       10.2110175005        0.5531328043
 C        -7.4325730414        8.7476200077       -1.3685565932
 C        -6.2955817917        4.3692551345        3.5343941830
 C        -6.4496134602        2.3777352752        1.8252367323
 C       -13.2432053360        2.0826515939        0.0469750178
 C       -13.4330312582        1.1759416580        2.4442701723
 C        -7.2875889237       -2.5860656745       -0.4718035304
 C        -6.3223812753       -0.6634428591       -1.7660675901
 C       -11.8221858185       -1.0429703606       -6.9805566006
 C       -12.3006171413        1.1834501033       -6.1127292564
 H       -13.5830003682        0.5746702006       -3.4022013016
 H       -14.2768467053       -0.9406559687       -3.0516458151
 H       -14.6160340333       -0.4699247649       -4.5889799352
 H        -8.9994989763       -1.5386709870       -5.8452267634
 H       -10.0670832751       -1.9794240555       -4.5189945762
 H        -8.2109849268        0.1673110098       -3.6094114999
 H        -7.2183061302       -1.1198736739       -4.5206496007
 H       -10.2644846599       -1.7769070244        0.2316707549
 H       -10.4313907094       -1.6038344898       -1.4887421243
 H       -12.0900725570       -0.3096413186       -0.8804692825
 H       -10.9534578413        0.9979260538       -0.8497605827
 H       -11.3328975075        1.6051566492        3.7135640319
 H       -10.9205654574        3.2281421540        3.8849562311
 H        -9.2151547037        1.5966055114        1.9516988151
 H        -8.8223253434        1.5786397297        3.5619466073
 H        -5.5960130860        4.3282841476       -0.3295767315
 H        -5.0909981364        5.2334367489        1.0645883297
 H        -6.7353922068        6.4817484542       -1.1094702180
 H        -4.9504267987        6.5123958602       -0.8113838947
 H        -8.5979330081        9.9565584523        2.6421876215
 H        -7.4122703389        8.6327671760        2.9339749205
 H        -9.2479386991        8.7724366904        4.4697379118
 H        -9.2625930619        7.2338912823        3.6492510373
 H       -11.8634827701       10.3303149157       -0.6162729794
 H       -13.0898788711       10.6084727146        0.6926092487
 H       -12.3171661641        9.0916570699        0.5356100094
 H       -13.6463141948        9.1422510398        2.7428136524
 H       -13.4819569687       10.8332724183        3.1207451957
 H       -13.1564313194        9.5085358329        4.3420167139
 H        -9.9422070866       11.3394932686        3.7024745506
 H       -10.3988807512       10.2585343870        5.0169503280
 H       -11.4977884205       11.5509611781        4.4420155589
 H        -7.3686526178       10.9406434164        0.3830731773
 H        -5.6781306337       10.4659413989       -0.1421829947
 H        -6.1672232055       10.1825039794        1.5720523276
 H        -8.0659964502        9.6452969741       -1.6170964172
 H        -7.9334916048        7.8652313863       -1.6885183076
 H        -6.4526984256        8.6629308876       -1.8641386634
 H        -6.8497433037        5.1106567889        4.0770865929
 H        -5.3098491042        4.7552411511        3.2679962725
 H        -6.0141660435        3.6237598620        4.2691976875
 H        -6.4473781383        1.5435215636        2.5461661293
 H        -5.3996482535        2.4978546921        1.5528600641
 H        -6.9424195428        2.0425194856        0.8704963751
 H       -14.0267682696        1.3890207458       -0.3358582067
 H       -12.5611146159        2.4345520931       -0.7612325462
 H       -13.7429946109        3.0077079231        0.3739672291
 H       -12.9775058075        0.5784176196        3.2463294185
 H       -14.3626925295        0.9343633478        2.0896949041
 H       -13.6215300131        2.1943498145        2.9236200960
 H        -6.2179612837       -2.7307774810       -0.4958450877
 H        -7.8052843012       -3.4813161246       -0.8370115405
 H        -7.6433716588       -2.3732557464        0.5104485612
 H        -6.4430189446        0.1777681578       -2.3412887839
 H        -5.6382693906       -1.2805136973       -2.3915819088
 H        -5.8961946103       -0.4419185828       -0.7853122654
 H       -11.4970499839       -2.0297433111       -6.7179769691
 H       -11.2271253140       -0.5367545916       -7.7583611069
 H       -12.8390840068       -1.1180285037       -7.4147919109
 H       -11.4830054176        1.7009389976       -6.6167274121
 H       -12.4917261634        1.7268622997       -5.2330721531
 H       -13.1554000606        1.0926047426       -6.8362622619
 Na      -10.4374420613        5.8390798707        1.4407811479
