117

 C       -13.9187895400       -0.1885358888       -4.1633442295
 C       -12.7239213209       -0.9697927926       -4.6946730997
 O       -12.3517684352       -2.0520985573       -4.1967295356
 C       -11.8550167601       -0.2748297416       -5.7537539760
 C       -10.5248159712       -0.0814985938       -4.9775106848
 O       -10.2198158144        0.9700926435       -4.4167746845
 C        -9.5204380000       -1.2063718831       -4.9261599272
 C        -8.2814506445       -1.0518032204       -3.9977526871
 C        -8.0989183279       -2.0551005117       -2.8102233903
 O        -8.2902821950       -3.2181456096       -2.9679624199
 C        -7.4799140181       -1.4902175127       -1.4814610295
 C        -8.6395329609       -0.6467391420       -0.7638512866
 O        -8.4304002116        0.5342494164       -0.5914724348
 C       -10.0449894689       -1.1179562048       -0.6081970391
 C       -11.0959060434        0.0680884620       -0.4511589946
 C       -11.3801458133        0.4503892403        1.0466629544
 O       -10.9403423221       -0.2417623082        1.9148633874
 C       -12.4450292327        1.5347651697        1.3259444595
 C       -11.6573073148        2.8397900932        1.9385030964
 O       -11.7020813695        3.9274495311        1.4322034043
 C       -10.8098783142        2.5258406215        3.3226737377
 C        -9.3266391740        2.2988550663        3.1443602811
 C        -8.6753789796        3.6095595204        2.7844769153
 O        -9.2445602370        4.5962854395        3.2471563505
 C        -7.2186605807        3.7260078461        2.2505742132
 C        -7.1789761963        4.5847689488        0.9870679605
 O        -8.1208154067        5.1617721724        0.5305837125
 C        -5.8083348122        4.9306418260        0.4400441581
 C        -5.8741068576        6.2819050315       -0.3944538699
 C        -6.1398965860        7.4780917010        0.5746921627
 O        -5.9155422925        7.3802274788        1.7803163889
 C        -6.9279018639        8.7251081288       -0.0008268847
 C        -8.3147288031        8.4689397701        0.8991524527
 O        -9.2953121938        7.8700526087        0.3554811848
 C        -8.2639023786        9.0032916221        2.2941386279
 C        -9.3495553433        8.3450581158        3.2263314636
 C       -10.8078448773        8.5747892047        2.8172813285
 O       -11.5375271908        7.6908268099        2.4450150481
 C       -11.5477718688       10.0248880722        2.9529376162
 C       -11.3313831205       10.6639330322        1.5686499050
 O       -10.4042963713       11.4278268726        1.4406521533
 C       -12.2557816486       10.2665256293        0.4297558720
 C       -13.0781701054        9.7557252117        3.3090072049
 C       -10.8656033179       10.9733707538        4.0588246010
 C        -6.2767869344        9.9936263697        0.4914347461
 C        -7.2607377334        8.7311513349       -1.5254548213
 C        -6.4360890661        4.4954642624        3.4179553545
 C        -6.4897180303        2.3815421659        2.0714881631
 C       -13.1263250950        2.1104087756        0.1051231945
 C       -13.4924682159        1.0849286259        2.4446780609
 C        -7.1801796980       -2.7356489524       -0.6548465731
 C        -6.1680733832       -0.5566799308       -1.6239611017
 C       -11.5465374701       -1.2357968381       -6.9678863424
 C       -12.5160314452        1.0929393625       -6.1413061674
 H       -13.5309026363        0.4684131125       -3.4344085234
 H       -14.7000423395       -0.8085706028       -3.5975636118
 H       -14.6039878236        0.2330031870       -4.8263452275
 H        -9.0049072096       -1.3176064673       -5.8992785531
 H        -9.9758558023       -2.2124889907       -4.6408673306
 H        -8.2532477764       -0.0812766100       -3.6159925917
 H        -7.3296203134       -1.1740649824       -4.5371793237
 H       -10.1106080865       -1.7633662918        0.2773752294
 H       -10.3385522818       -1.7945592438       -1.4334977162
 H       -12.0072399150       -0.2690076577       -0.8670181838
 H       -10.8727397454        1.0423839508       -1.0464775664
 H       -11.2663066858        1.6577103297        3.7992250321
 H       -11.0557224077        3.3288368686        4.0856329991
 H        -9.1590483994        1.3513482811        2.5420594105
 H        -8.8304685948        2.0332298668        4.1403500184
 H        -5.4628773627        4.2073211473       -0.3046965287
 H        -5.0572908972        5.0624540388        1.2713270298
 H        -6.5117805199        6.1455305306       -1.2770865023
 H        -4.8891904376        6.4559457679       -0.7477206622
 H        -8.5975759301       10.0588769989        2.2299354516
 H        -7.3534853284        8.9366631659        2.8248630012
 H        -9.2319381785        8.7173228377        4.2293539509
 H        -9.1919135131        7.2328008287        3.3574871476
 H       -11.7048967576       10.2582599982       -0.4820097373
 H       -13.1234862434       10.9737032509        0.3743173631
 H       -12.5478664403        9.2028893529        0.4903302438
 H       -13.5690847496        9.1933741185        2.5689397760
 H       -13.6252314315       10.6849728749        3.2743576951
 H       -13.3049604701        9.2447321451        4.2391964687
 H        -9.7845128631       11.0022547191        3.9271938595
 H       -11.1514673671       10.6556717799        5.0381924532
 H       -11.2029776375       11.9862372690        3.9259329939
 H        -6.9965758761       10.7408738145        0.8666249580
 H        -5.7648805861       10.4491996640       -0.2970281902
 H        -5.5670385276        9.6469658688        1.2830585152
 H        -7.8373107540        9.6142600382       -1.7003734283
 H        -7.9609090359        7.8338999279       -1.7160292670
 H        -6.3782276263        8.5020371634       -2.1531628570
 H        -7.0733130921        5.3769319564        3.6773798557
 H        -5.4197076212        4.8649007114        3.1803588335
 H        -6.3399029239        3.9569582297        4.4083497275
 H        -6.8674281187        1.6454606073        2.7503876252
 H        -5.3782566876        2.4238075187        2.1776437241
 H        -6.7171413638        1.9688583976        1.1220515856
 H       -13.5096597203        1.2631429696       -0.5055953082
 H       -12.4953395820        2.8111572427       -0.4594335020
 H       -13.9992547677        2.7194664579        0.3907739713
 H       -12.9691522290        0.4314061133        3.1138466403
 H       -14.3054573068        0.6466880374        1.8126642340
 H       -13.8609414949        1.8571149077        3.0844810879
 H        -6.6148232684       -3.5093237221       -1.2457733828
 H        -8.1951098215       -3.0798914908       -0.3195545728
 H        -6.6692926264       -2.3846952700        0.3052187462
 H        -6.4713789030        0.3854494630       -2.2496686226
 H        -5.3472919990       -1.0695057830       -2.1139454438
 H        -5.8434279393       -0.1670189412       -0.6474354228
 H       -11.2732427174       -2.2611167498       -6.6410358683
 H       -10.8526832305       -0.7035437012       -7.6008148877
 H       -12.4362105810       -1.3461247266       -7.5618580610
 H       -11.9539236194        1.6628919412       -6.8740141283
 H       -12.6019230714        1.7399543444       -5.2202074840
 H       -13.4667425626        0.8370079842       -6.5085543573
 Na      -10.1187737711        5.7871802391        1.5493390134
