117

 C       -14.1239337002       -0.2556292116       -4.2720960370
 C       -12.8733825758       -0.9699011486       -4.6597965712
 O       -12.5973445328       -1.9890707235       -4.1463144028
 C       -11.8368888935       -0.3449625809       -5.7631017289
 C       -10.4825553287       -0.1330839469       -4.8552120626
 O       -10.2937761757        0.9126027500       -4.3158935971
 C        -9.5409500592       -1.2468209583       -4.7799778974
 C        -8.2822873044       -0.8567660265       -3.8768587569
 C        -8.0802173354       -1.9323451745       -2.7923240522
 O        -8.4625070132       -3.0720090307       -3.0065799509
 C        -7.4762745596       -1.4802362764       -1.4293523842
 C        -8.5412566468       -0.5579189893       -0.7495831383
 O        -8.2996377036        0.5918782385       -0.3857118879
 C       -10.0091622267       -1.0553682286       -0.5242725604
 C       -11.1034194020       -0.0123349327       -0.4683904969
 C       -11.3877027211        0.3897951293        0.9716629770
 O       -10.7876272661       -0.0462032750        1.9479946928
 C       -12.4305559589        1.4955600257        1.3065355258
 C       -11.6652305783        2.7554827798        2.1443647020
 O       -11.7029165160        3.8761660594        1.6198659467
 C       -10.9458531662        2.4171345521        3.4483263412
 C        -9.3989413422        2.4848291158        3.1659016293
 C        -8.6753796912        3.8388055598        2.9555024264
 O        -9.1764922201        4.8796299502        3.3304797436
 C        -7.2309663373        3.8549157017        2.4298385341
 C        -7.1416109709        4.5608876217        1.0129099302
 O        -8.1408420984        5.0167809422        0.4559202739
 C        -5.8257683375        4.7541112577        0.2873121529
 C        -5.7049086464        6.1422030794       -0.4144998034
 C        -6.1316845481        7.2764818505        0.4706692362
 O        -5.9491785782        7.1856134777        1.6689153682
 C        -6.8908783397        8.6028227570       -0.0616760867
 C        -8.2843164046        8.5664578045        0.7394845951
 O        -9.1937622382        7.9716959144        0.2682543039
 C        -8.3904184211        9.3044602739        2.1455903170
 C        -9.2894699699        8.5119400171        3.1653944868
 C       -10.8222165498        8.6049885619        2.7610340975
 O       -11.4800839372        7.6035547487        2.4187612274
 C       -11.6118888724        9.9949498612        2.9810141937
 C       -11.3172863539       10.6459759795        1.5220194274
 O       -10.2879786570       11.2512889732        1.3431000684
 C       -12.3036425229       10.3607920555        0.3848706494
 C       -13.0691161303        9.7912437180        3.2528507463
 C       -10.9805641944       10.8911342263        4.0638598928
 C        -5.9155504235        9.7584500284        0.3747144601
 C        -7.1589379951        8.6065284691       -1.5653596123
 C        -6.3373652416        4.6151431365        3.4710928554
 C        -6.6611413118        2.4126128764        2.1809076391
 C       -13.1366934527        2.1255375836        0.0474163875
 C       -13.4935282963        0.8823161311        2.2003791916
 C        -7.2550901617       -2.6955952005       -0.4771838944
 C        -6.2120739565       -0.6943741060       -1.6919584860
 C       -11.6435533117       -1.3747212394       -6.8999678902
 C       -12.2281367446        1.0229153037       -6.3994696275
 H       -13.9474580797        0.6612208032       -3.6673046418
 H       -14.7172586341       -0.8855692734       -3.7193503512
 H       -14.7977740713       -0.0005658724       -5.1121956813
 H        -9.1605471774       -1.5423779714       -5.7257210499
 H        -9.9833479296       -2.0834338065       -4.3335835771
 H        -8.3472529731        0.1719490075       -3.4149318594
 H        -7.3822350691       -0.8349615585       -4.4275783404
 H        -9.9849581451       -1.6651961805        0.3796391187
 H       -10.2953058729       -1.7768958938       -1.3000684926
 H       -12.0691525285       -0.4740168044       -0.8899265974
 H       -10.8804751711        0.7804127666       -1.1130973915
 H       -11.3120567134        1.4550015303        3.8240168684
 H       -11.2693752917        3.0987394830        4.2068364713
 H        -9.2261837278        1.9264214355        2.2830949145
 H        -8.9013412904        1.9315752765        3.9206537776
 H        -5.6246852983        3.9673960814       -0.4817714173
 H        -5.0843934283        4.7701192099        1.0706118608
 H        -6.3396786540        6.0751136761       -1.3049793691
 H        -4.6591325924        6.3648696995       -0.7687835800
 H        -8.8159908325       10.2930197759        2.0468594937
 H        -7.4365644652        9.4430211715        2.6950169850
 H        -9.1870967778        8.8272699324        4.2391401662
 H        -8.9372827055        7.5009589038        3.2150690567
 H       -11.8326646152       10.6705133455       -0.5624935723
 H       -13.1272546147       11.0598196751        0.5575370203
 H       -12.5642997695        9.3341114421        0.2156168717
 H       -13.5178143313        9.0595628783        2.5324145357
 H       -13.7160758434       10.6489960381        3.3053551887
 H       -13.1689901811        9.3568789572        4.2338169190
 H        -9.8852823121       10.7896214649        4.0566683039
 H       -11.4590669790       10.6385675168        5.0317707068
 H       -11.1980359487       11.9530313934        3.8705215101
 H        -6.3172010369       10.6835288780        0.0400927430
 H        -5.0523079398        9.5983471617       -0.2977252578
 H        -5.7210666244        9.7977166013        1.4034909788
 H        -7.5365902482        9.6026683135       -1.7831739874
 H        -7.9020633690        7.9249393956       -1.8405902958
 H        -6.2038230312        8.4010358484       -1.9784285484
 H        -6.3572500619        5.6848682494        3.3643414379
 H        -5.3092615103        4.3269495402        3.3375007244
 H        -6.6576330879        4.4350837480        4.4573982762
 H        -6.3924151960        1.8225390141        3.0788580528
 H        -5.8121701002        2.4873602585        1.5646335869
 H        -7.4230154674        1.7730317706        1.6775803598
 H       -13.8049944111        1.4573044816       -0.3524666286
 H       -12.4278243689        2.4390283819       -0.6837071401
 H       -13.6785340008        3.0215360795        0.2435671737
 H       -13.0368331250        0.6110398260        3.1637025696
 H       -13.8504974475       -0.0285329230        1.6739841641
 H       -14.2488051131        1.6104486295        2.4712205896
 H        -7.3551971227       -3.5954922697       -1.0441205604
 H        -7.9511186158       -2.7014144153        0.3169860169
 H        -6.2950937193       -2.6408905387       -0.0355244677
 H        -6.3894772833        0.1909185542       -2.2383620874
 H        -5.3668180767       -1.3291753275       -2.0110016471
 H        -5.9317241871       -0.2509781770       -0.7064693415
 H       -11.6467988722       -2.3298755132       -6.4459925556
 H       -10.8071317286       -1.1760845695       -7.5597690380
 H       -12.5694984589       -1.3513230039       -7.4871376630
 H       -11.4163348775        1.2029522970       -7.1141298557
 H       -12.2244046348        1.8624227232       -5.7398326427
 H       -13.2454015840        0.9488583873       -6.9123511431
 Na      -10.2304272112        5.9455373817        1.6007443518
