117

 C        -4.6333001399       12.7020154205        0.3277790616
 C        -5.2581523074       11.9103391406       -0.8879644000
 O        -6.4763968677       11.9176154267       -0.9901199884
 C        -4.2459718356       11.0095485702       -1.7840845821
 C        -3.3407202212       10.1379258575       -0.7550062758
 O        -2.1225015649       10.2344000493       -0.7862780815
 C        -4.0615086944        8.9686774932        0.0906311005
 C        -5.5135037905        9.1953463259        0.4622780731
 C        -6.2593407133        7.9159403190        0.9303602431
 O        -6.7164174476        7.1596111109        0.1281093071
 C        -6.5253544392        7.6681254114        2.4765841651
 C        -8.0857698525        7.4860927457        2.7119389306
 O        -8.7209801322        8.2233614352        3.4828780761
 C        -8.7480094073        6.1966307475        1.9863041678
 C       -10.2801603990        6.3527001095        2.0155647854
 C       -11.1380759818        5.2132728387        1.5362330209
 O       -10.7523818232        4.0621708148        1.5511569741
 C       -12.5191104887        5.6675247209        0.8196452146
 C       -13.3231751915        4.4345447592        0.4015448641
 O       -12.6405675387        3.6135442055       -0.1926820506
 C       -14.8076820827        4.2833418493        0.7298299105
 C       -15.3107671537        2.8283588400        0.5722178289
 C       -14.3795548936        1.7535758612        1.1794358408
 O       -13.4533429123        2.0127303715        1.8799123337
 C       -14.8255728776        0.2701224088        0.9948031446
 C       -13.8050770860       -0.4215160188        0.0606544083
 O       -12.6503857721       -0.2087592041        0.1857565427
 C       -14.2649732696       -1.3965954654       -0.9682285571
 C       -13.3217297561       -2.6021358720       -1.3226518402
 C       -12.5245741459       -2.1909729411       -2.5943995026
 O       -12.8327833783       -1.3077198518       -3.4115427236
 C       -11.2947239019       -2.9997638815       -2.8261816408
 C       -10.0562391343       -2.1195057463       -2.7027257958
 O        -9.2051394279       -2.3003646258       -1.8661149093
 C       -10.1071096455       -0.8007570555       -3.4749840992
 C        -9.1185179682        0.2454092891       -2.8564869460
 C        -9.5869339856        0.6053894037       -1.3513101173
 O       -10.6550737730        1.2370939490       -1.1911427605
 C        -8.5719363599        0.3595279341       -0.0624621297
 C        -9.3095823708       -0.4121106221        1.1678872092
 O       -10.1770588758        0.0714675498        1.8125484816
 C        -8.9147153810       -1.8623399424        1.4548434076
 C        -7.2879691055       -0.3240752774       -0.5363832848
 C        -8.2562475701        1.7780323781        0.3186713637
 C       -11.2578394750       -4.4044756229       -2.1336411434
 C       -11.3722372976       -3.4073701013       -4.4161353748
 C       -14.6997339161       -0.5944839422        2.3327885841
 C       -16.2656094964        0.0660217004        0.3794852813
 C       -13.3105449124        6.6167426122        1.7093725657
 C       -12.0442364631        6.3455899654       -0.5820418080
 C        -5.7305619522        6.3406791216        2.8355297687
 C        -5.9882030556        8.7600010175        3.4583082572
 C        -4.9053699738       10.1675924344       -2.9198773797
 C        -3.3948194236       12.0789522755       -2.4205501521
 H        -3.5634072807       12.9049225016        0.2140717412
 H        -4.6813224171       11.9339585409        1.1804001370
 H        -5.0833632112       13.6164999414        0.4861345574
 H        -3.3739690051        8.8844998235        0.9163938058
 H        -3.9033268371        8.1846499950       -0.7414486096
 H        -6.0753080995        9.5526040419       -0.5082859142
 H        -5.5139289758       10.0717978470        1.1674237284
 H        -8.4123065226        5.3101247788        2.3862890792
 H        -8.3813395976        6.2654424173        0.9674307708
 H       -10.4257304153        7.2625810600        1.4229886052
 H       -10.6552059934        6.5981660102        3.0784057499
 H       -15.3865792024        4.8535239277       -0.0313898832
 H       -15.0177812331        4.5463744400        1.8012973495
 H       -15.5851921957        2.5309205589       -0.4890141930
 H       -16.2112867763        2.8330125128        1.2022477647
 H       -14.4191635435       -0.8108806423       -1.8928092604
 H       -15.1460458552       -1.8884889201       -0.5850890968
 H       -14.0066774898       -3.4302072558       -1.6912463314
 H       -12.7228832728       -2.9564506135       -0.4386380675
 H       -11.1364779925       -0.3414573111       -3.3740160096
 H       -10.0137418024       -1.0366463136       -4.5667368597
 H        -9.1534977565        1.1358185611       -3.4635778614
 H        -8.1122208442       -0.0630795373       -2.8795828449
 H        -8.8316120308       -2.4797046386        0.5240285568
 H        -9.5625729912       -2.3012507970        2.1341417750
 H        -7.8414540962       -1.7944676620        1.8573062976
 H        -6.7811686623        0.3068723663       -1.2461570236
 H        -7.4915512950       -1.2182046345       -1.0786450638
 H        -6.6044030302       -0.5968960733        0.3240109029
 H        -9.2357687086        2.3383491866        0.5003686959
 H        -7.6261059255        2.3855018405       -0.3852859995
 H        -7.7130912310        1.8642622234        1.2265353671
 H       -12.2008026596       -4.9089685932       -2.1330092108
 H       -10.9746957922       -4.2460493231       -1.1447295602
 H       -10.4170751810       -4.9558602568       -2.6115244496
 H       -11.5615389776       -2.6248608006       -5.1269403489
 H       -12.1794076544       -4.1305125160       -4.7088615659
 H       -10.4182575081       -3.9720400694       -4.6671525792
 H       -15.5017361545       -0.3766135775        3.0426673729
 H       -13.8005830672       -0.3782930537        2.8888333161
 H       -14.8185889280       -1.6473456525        2.1072603146
 H       -17.0206831080        0.7846433162        0.6999933166
 H       -16.6858522246       -0.8792138461        0.7167296734
 H       -15.9998777536        0.2043047631       -0.7089915365
 H       -14.3247782750        6.8002388832        1.3342867546
 H       -12.9189844355        7.6223019493        1.6460685998
 H       -13.3303601363        6.3202932647        2.7157383279
 H       -11.6298630611        5.5471912877       -1.1922221071
 H       -11.1010969024        6.9176082416       -0.5780447651
 H       -12.7945269995        6.9597846431       -1.0216640399
 H        -4.7090322585        6.6732830899        2.9477413007
 H        -5.8807581770        5.5695478682        2.0805780771
 H        -6.0641179423        5.7950739721        3.7323804192
 H        -6.5764740859        9.6752376978        3.3741269740
 H        -4.8961222297        9.0398400632        3.3006616453
 H        -6.1279562691        8.2293841516        4.3996031311
 H        -5.3211968563        9.3348890017       -2.3792161647
 H        -4.1921676285        9.8181770827       -3.6573894311
 H        -5.7032013186       10.8768400064       -3.3042332748
 H        -4.0093414714       12.9277464602       -2.7672667576
 H        -2.9872945402       11.6739735324       -3.3648313523
 H        -2.5123305284       12.4664395080       -1.9814555494
 Na      -11.4252935913        1.6897171290        1.0452191503
