117

 C       -14.4010570096       -0.0508090690       -4.9094205467
 C       -13.1002498096       -0.8304645824       -4.7991477488
 O       -12.9481546393       -1.6996716281       -3.9073524423
 C       -11.8435778009       -0.5124611233       -5.8063416180
 C       -10.6419699647       -0.1219842944       -4.8581879895
 O       -10.8455144870        0.8441216482       -4.1084105408
 C        -9.5039548378       -1.1701667842       -4.6468219437
 C        -8.4218335950       -0.7390389207       -3.5726143728
 C        -8.1311753519       -1.8616182556       -2.5782817518
 O        -8.5837074497       -2.9810376248       -2.6790085277
 C        -7.4729598474       -1.4469827324       -1.2000873448
 C        -8.4969870865       -0.5172300145       -0.5551767935
 O        -8.1624637364        0.6035270213       -0.1882058437
 C        -9.9581920095       -1.0799261143       -0.3628081118
 C       -10.9990089834        0.0500382762       -0.3572676064
 C       -11.2375724662        0.6314683443        1.0010965973
 O       -10.5700224484        0.2320872296        1.9566633153
 C       -12.2880011691        1.7008865450        1.2671537722
 C       -11.5837901551        3.0024349360        1.8702152113
 O       -11.5388836919        3.9994060124        1.2004821098
 C       -11.0931180170        2.8902663068        3.2947976457
 C        -9.6152083250        2.5243645755        3.4313933423
 C        -8.7333446302        3.7715872550        3.2212536559
 O        -9.1957640977        4.8717455760        3.4422237492
 C        -7.1767842326        3.7142257239        2.6188525530
 C        -7.2460862780        4.4198432769        1.2208062475
 O        -8.2361198851        4.9394533941        0.7501436685
 C        -6.0051700131        4.4255392140        0.2669889100
 C        -6.0814683191        5.7253597490       -0.6168353793
 C        -6.1590937602        6.9652407272        0.3415442388
 O        -5.5623443002        6.9927081964        1.4040355522
 C        -6.8274907911        8.3195440920       -0.1192699570
 C        -8.1415720808        8.3403596745        0.7161350919
 O        -9.0927138126        7.6160602370        0.3398803645
 C        -8.1880178982        9.0250042077        2.0392525804
 C        -9.2147547681        8.5505356020        3.0815546021
 C       -10.6292539899        8.7643078510        2.6187972808
 O       -11.2136472385        7.8294217001        2.0416391971
 C       -11.4661012597       10.0280327714        2.7416195524
 C       -11.4775104205       10.8463024538        1.3237584413
 O       -10.5207493476       11.5517891945        1.1220203053
 C       -12.5406201284       10.6048080741        0.2942764148
 C       -12.9580262169        9.6421528642        3.0977190057
 C       -10.9051143655       11.0134124964        3.7999631662
 C        -5.9547692091        9.5790268481        0.2106921537
 C        -7.1984600619        8.3836648431       -1.7031410284
 C        -6.2590966303        4.5612947723        3.6238677958
 C        -6.5259940744        2.3177666189        2.5045239394
 C       -13.0303572482        2.1048783073       -0.0108533042
 C       -13.2677643933        1.1777573816        2.3567935937
 C        -7.2472028432       -2.7115034449       -0.3377002082
 C        -6.0642984589       -0.6680595381       -1.4437008453
 C       -11.5163737595       -1.7590728163       -6.6413107001
 C       -12.1266193124        0.7319055916       -6.6443878809
 H       -14.3151088680        1.0032935876       -4.7756993768
 H       -15.1452935562       -0.4818793424       -4.1668375348
 H       -14.7762764857       -0.0832904587       -5.9043151125
 H        -8.9841914817       -1.1957058960       -5.5496655738
 H        -9.9316984538       -2.1397794016       -4.5203851964
 H        -8.6406504750        0.2283562234       -3.1154883049
 H        -7.4670144550       -0.5442818539       -4.1406898303
 H       -10.0093889169       -1.5732113098        0.6024799985
 H       -10.1135242249       -1.8911361714       -1.1137401963
 H       -11.8861719995       -0.2247825132       -0.9221892508
 H       -10.5086394513        0.8886467762       -0.9098179817
 H       -11.7912080598        2.3200598219        3.8384746206
 H       -11.1767552466        3.9170691802        3.6930423501
 H        -9.3427595599        1.7589869246        2.7588551541
 H        -9.5002279287        2.2098676116        4.4316429647
 H        -6.0414689470        3.5975566701       -0.4515603291
 H        -5.0436563503        4.4249905789        0.7738604955
 H        -6.8953893231        5.6496877814       -1.3848629531
 H        -5.1384909266        5.7930011365       -1.2162474387
 H        -8.5370478318       10.0782358784        1.9041248594
 H        -7.2456712304        9.1470094613        2.5217264140
 H        -9.1076694625        9.1158978998        3.9890513467
 H        -9.0562826390        7.4719783565        3.3324605317
 H       -12.2492754606       11.1084947720       -0.6026661955
 H       -13.5315460342       11.0598853806        0.5071692098
 H       -12.5639740977        9.5281324799        0.1497176273
 H       -13.3996720961        9.0941177311        2.3052557179
 H       -13.5404771541       10.5553846091        3.1380636207
 H       -13.1140356425        9.1088772340        4.0366646108
 H        -9.9861898022       11.3918571875        3.2856166022
 H       -10.6427402783       10.6248272349        4.7898080953
 H       -11.6515725857       11.8031192290        3.8207938759
 H        -6.5622736010       10.3878785421        0.5594794102
 H        -5.3546443367        9.8567776015       -0.5974855660
 H        -5.3059602935        9.3230845536        1.0726867918
 H        -7.4311857751        9.3465793779       -1.9864116536
 H        -8.0374956254        7.7052754900       -1.8032180225
 H        -6.3576187650        8.1212144194       -2.2833479734
 H        -6.8987132802        5.2243225282        4.1956887848
 H        -5.5107333786        5.2163847702        3.2277723513
 H        -5.8992394186        3.8496918561        4.3317811481
 H        -6.3617482240        1.8365946625        3.4843478868
 H        -5.5416671700        2.4756682516        2.0408900176
 H        -7.0980259227        1.6727992634        1.8763763325
 H       -13.6856282046        1.3205083719       -0.3618332897
 H       -12.3721645284        2.2792071101       -0.7933542091
 H       -13.6365442449        2.9380934449        0.1623518063
 H       -12.7141022520        0.4745042161        2.9590597105
 H       -14.0766403253        0.5087469426        1.9953213024
 H       -13.6645191334        2.0397383464        2.8714330967
 H        -8.0208995346       -3.0186841429        0.3355012580
 H        -6.4196114814       -2.5674606328        0.3050760091
 H        -7.0001676303       -3.4855380099       -1.0572621376
 H        -6.3203361757        0.3231609246       -1.9794979406
 H        -5.2721925602       -1.2427695503       -1.8882385864
 H        -5.6232882612       -0.3246718188       -0.5235423722
 H       -11.5022905451       -2.6130070682       -5.9550968046
 H       -10.5542236232       -1.7238108541       -7.1016873503
 H       -12.2947160752       -1.8939088239       -7.3555102411
 H       -11.3718156113        0.9471719373       -7.4124419713
 H       -12.1518871688        1.5943966299       -5.9009296334
 H       -13.0869831552        0.7346038696       -7.1563618519
 Na      -10.2593315103        5.9305946378        1.5370440384
