117

 C       -14.4083970375       -0.1105882329       -5.2166855340
 C       -13.0879493520       -0.8101217967       -4.8044655275
 O       -12.9943779216       -1.6197823375       -3.9294861618
 C       -11.8100434462       -0.5504256647       -5.6578139590
 C       -10.7286611761       -0.2099333401       -4.6211763586
 O       -10.7564309729        0.8235199682       -3.9819068597
 C        -9.5798608774       -1.1347612163       -4.4887415932
 C        -8.5204146620       -0.7080926030       -3.4796404659
 C        -8.1216990887       -1.7941567794       -2.5526185205
 O        -8.4946607324       -2.9010859269       -2.8096822120
 C        -7.4498235425       -1.4291903838       -1.1857709248
 C        -8.5077273638       -0.4641639834       -0.4901714370
 O        -8.1544284891        0.6450980907       -0.1198207391
 C        -9.8957632927       -1.0776279879       -0.2260523520
 C       -11.0178022621        0.0159276212       -0.3163146074
 C       -11.3569736662        0.5671872504        1.0525511038
 O       -10.7809478836        0.2113367702        2.0177564889
 C       -12.4178567965        1.7606039100        1.3059930355
 C       -11.6035470412        3.0056856071        1.7941603631
 O       -11.3455767224        3.9859903757        1.0995515820
 C       -11.0384352327        3.0159824140        3.2865848325
 C        -9.5448920664        2.7027488610        3.4924990737
 C        -8.6471607710        3.9585512284        3.2378845641
 O        -8.9892355824        5.1043073705        3.5273962711
 C        -7.2238395562        3.7029137335        2.6491277313
 C        -7.1971757941        4.3703537051        1.2321046874
 O        -8.2567215725        4.7761759315        0.8067454903
 C        -5.9643470091        4.4349958924        0.4129586432
 C        -6.0942353725        5.6007089765       -0.6211368041
 C        -5.9717362306        6.9251017466        0.2022808820
 O        -5.2602291686        7.0549755264        1.1811937833
 C        -6.7570270374        8.2333201316       -0.2010215953
 C        -8.1065646560        8.1737262955        0.6536517945
 O        -9.0460512784        7.5422868652        0.2767237260
 C        -8.3138755424        9.0648437227        1.8717907163
 C        -9.3725216686        8.5653176670        2.8786002740
 C       -10.7911062275        8.7845605604        2.4138772915
 O       -11.4884564809        7.9140145356        1.9274481930
 C       -11.4559803724       10.1188973395        2.7648012912
 C       -11.3721742638       10.8929822436        1.3230783850
 O       -10.4500133252       11.5800132190        0.9655114719
 C       -12.5268929276       10.5199771712        0.3302743019
 C       -12.9784668397        9.9332182422        3.1773008820
 C       -10.7802237189       11.0397320500        3.8193851268
 C        -5.9208812886        9.4644545968        0.1326802956
 C        -7.2621288021        8.2558188569       -1.6725016614
 C        -6.2620673581        4.6007670028        3.5111636779
 C        -6.8113973446        2.1931926177        2.6586648168
 C       -13.2137977742        2.2139523167        0.0310787425
 C       -13.4324637940        1.2105324193        2.3276826734
 C        -7.0798735084       -2.8006154007       -0.4707605435
 C        -6.1976050673       -0.6753911011       -1.5073981078
 C       -11.7042947806       -1.8823320626       -6.4828256721
 C       -11.8670142458        0.5980441655       -6.6984185090
 H       -14.3187002578        1.0084739170       -5.1178658320
 H       -15.2311115855       -0.4575935572       -4.6173834472
 H       -14.5447108317       -0.0949129667       -6.3277847403
 H        -9.1855609428       -1.3680885136       -5.5615160861
 H        -9.9719811634       -2.1503524643       -4.1793235379
 H        -9.0057271870        0.1507172571       -2.8821510038
 H        -7.6963818024       -0.1968891172       -3.9860865736
 H        -9.7971870220       -1.5761074168        0.7911014304
 H       -10.0344488961       -1.8899080821       -0.9425705161
 H       -11.8484257871       -0.4865476211       -0.8844983983
 H       -10.6484346222        0.7668576712       -0.9959882126
 H       -11.6611146833        2.2377947774        3.7893902747
 H       -11.3335115366        3.9728202412        3.6705865538
 H        -9.3941222722        1.7600979320        2.9012841305
 H        -9.4639419752        2.4836640378        4.6018273129
 H        -5.6304037397        3.5150797886       -0.0795934442
 H        -5.1767828529        4.7078968576        1.1008344892
 H        -7.0299124472        5.4740510612       -1.1261184131
 H        -5.3695892146        5.5975778540       -1.4190479114
 H        -8.4361596512       10.1275751294        1.6990918425
 H        -7.3863457255        9.0899079439        2.5264697263
 H        -9.2797949856        9.0945816850        3.8530514335
 H        -9.2095699709        7.5298294968        3.0033776307
 H       -12.3151515502       10.9451394097       -0.6355301212
 H       -13.4788338963       10.9759706883        0.6265996575
 H       -12.6584703824        9.4501544754        0.3255536233
 H       -13.5598101032        9.1754154160        2.5481016647
 H       -13.5395184110       10.8877577675        3.0657354939
 H       -13.0437039980        9.5755071108        4.2177571546
 H        -9.7226637468       10.9218008101        3.8938208633
 H       -11.1747771046       10.6774235563        4.7735762809
 H       -11.1432725519       12.0494095799        3.6375634951
 H        -6.6076159275       10.3300396810        0.2089903025
 H        -5.0163433661        9.6520683643       -0.5803944556
 H        -5.4463826859        9.3204829750        1.0971746670
 H        -7.8481838273        9.2169666427       -1.7877115370
 H        -7.8046203952        7.3261168703       -1.7478760709
 H        -6.4213151254        8.4176376715       -2.3574977824
 H        -6.6289695663        5.6247071757        3.5134472047
 H        -5.2486077938        4.5970343310        3.0717431448
 H        -6.1638458458        4.2240785601        4.5248834910
 H        -6.8669835086        1.8885154939        3.7161018478
 H        -5.8275765791        1.9478464793        2.2874486277
 H        -7.5748634015        1.6449193766        2.0280570392
 H       -13.9467731705        1.4641417489       -0.2080324307
 H       -12.5921152186        2.1882722649       -0.9135732382
 H       -13.7637447446        3.1916042723        0.1861120655
 H       -12.9923890566        0.6890382803        3.1794583836
 H       -13.9117411239        0.3550966563        1.7912218264
 H       -14.2765743306        1.8888553473        2.4750254206
 H        -7.9007109307       -3.0489403234        0.2353392058
 H        -6.2651903216       -2.7416425467        0.2370100768
 H        -7.0666320022       -3.6705862935       -1.1179762004
 H        -6.3224996262        0.0817372301       -2.2268860535
 H        -5.4863512983       -1.4006794099       -1.9606419269
 H        -5.6647292675       -0.3032864192       -0.6049353963
 H       -11.5914871369       -2.6956059125       -5.8009577272
 H       -10.8165386022       -1.8973013345       -7.1324303967
 H       -12.6249587787       -1.9779433615       -7.0821010471
 H       -10.9227788217        0.7731924365       -7.2312576402
 H       -12.1767626530        1.5167195707       -6.2963650240
 H       -12.5590812404        0.2834085461       -7.5162451467
 Na      -10.0887518023        5.8410550579        1.7837719358
