117

 C       -14.5105902620       -0.1253848746       -5.2802604183
 C       -13.1842795265       -0.7438241876       -4.8653647016
 O       -13.2266374645       -1.5009944713       -3.8659742835
 C       -11.8411910758       -0.5499405955       -5.7097156715
 C       -10.6521248203       -0.2013365261       -4.7112997833
 O       -10.7611151399        0.7485591586       -3.9186885628
 C        -9.4709636160       -1.1683292220       -4.4317644191
 C        -8.5370853746       -0.6532040837       -3.4451003365
 C        -8.1370800213       -1.8364402003       -2.5368534287
 O        -8.3652715037       -2.9898655484       -2.7961207127
 C        -7.4287047630       -1.4290840394       -1.2369882312
 C        -8.4351361875       -0.5862800896       -0.4236979197
 O        -8.1037588290        0.5567025199       -0.1079561243
 C        -9.9689799508       -1.0313392756       -0.1551113140
 C       -11.1279175212        0.0801838467       -0.2473199899
 C       -11.3810903907        0.6325048088        1.1093344498
 O       -10.9167802975        0.2236495691        2.1610636092
 C       -12.4389143487        1.7730643231        1.3113080939
 C       -11.5633370037        3.0091182440        1.8417910411
 O       -11.2706540992        3.8794019659        1.0836444018
 C       -11.0952075075        3.0692785223        3.3237561947
 C        -9.5838586665        2.8515665428        3.4154584670
 C        -8.6375903538        4.0095975208        3.3155752594
 O        -8.8896119325        5.1289336179        3.6901472617
 C        -7.2630525652        3.7008708699        2.6934813881
 C        -7.2707954706        4.2051550385        1.2010485312
 O        -8.2590175745        4.7101050120        0.7133419855
 C        -5.9514467776        4.3647463284        0.4534117009
 C        -6.0615585866        5.6439754594       -0.5099188835
 C        -5.9240535547        6.9408617672        0.2140067557
 O        -5.0868383204        7.0399068334        1.0890721815
 C        -6.8226568232        8.2754658634       -0.2550116250
 C        -8.0876977841        8.1594957687        0.6099042434
 O        -8.9643652261        7.3634971280        0.2352033175
 C        -8.2994812718        9.0289454056        1.8279513960
 C        -9.3273771320        8.4758593345        2.8435697014
 C       -10.8694888093        8.7955037796        2.5124270574
 O       -11.5300819570        7.8721078692        1.9385529840
 C       -11.5601283614       10.2631882358        2.7447542940
 C       -11.4300839117       10.9004495211        1.3027209283
 O       -10.4342500628       11.5027879392        1.0015268375
 C       -12.4978372303       10.5478186483        0.2076266811
 C       -12.9748376059       10.1303189786        3.2040002925
 C       -10.7227466992       11.1072973063        3.7544703166
 C        -5.9425293899        9.4661190278        0.0492594882
 C        -7.2326054208        8.1790188830       -1.7854562695
 C        -6.2180351796        4.5691477067        3.5411173256
 C        -6.8293559288        2.2328606088        2.6264839716
 C       -13.1146453260        2.2338577890       -0.0401541011
 C       -13.4572882172        1.2562749891        2.3340346110
 C        -7.1961329529       -2.6875251299       -0.4262864376
 C        -6.0836721587       -0.5888169785       -1.5553112584
 C       -11.5445622840       -1.8803411837       -6.4005792791
 C       -11.9130901423        0.5380213094       -6.7672727155
 H       -14.5290213961        0.9358901465       -5.2327509035
 H       -15.3643221025       -0.5419870172       -4.6335815886
 H       -14.6070054592       -0.2152167632       -6.3057092297
 H        -8.9699478695       -1.4286701048       -5.4070951691
 H        -9.8366480673       -2.1992411672       -4.0854631496
 H        -9.0126952986        0.1824075777       -2.9397781550
 H        -7.7660676101       -0.2073559690       -3.9539579006
 H        -9.9090961517       -1.3739410699        0.8614531930
 H       -10.1778105387       -1.9362987940       -0.7732643551
 H       -11.9798976718       -0.4872463640       -0.7435029742
 H       -10.8598531700        0.8307630552       -0.9349314877
 H       -11.6431954798        2.2942604470        3.8794156228
 H       -11.4444818822        4.0921936997        3.6596484346
 H        -9.3834233035        1.9980632474        2.7400128762
 H        -9.4631736255        2.5162888028        4.5000418713
 H        -5.8895805549        3.4632986640       -0.2727029765
 H        -5.0349000169        4.3349665559        1.0572763897
 H        -7.0242986321        5.5509021774       -0.9652380771
 H        -5.3899724625        5.6627398613       -1.3519087111
 H        -8.5335196892       10.0492813635        1.5285718442
 H        -7.4203640532        9.2410086657        2.4369607224
 H        -9.1345806730        8.8387596763        3.8846787724
 H        -9.1971038595        7.3961839562        2.7911431823
 H       -12.1898728910       10.9688489279       -0.7113006345
 H       -13.5193065258       11.0379654232        0.4650838822
 H       -12.6691458106        9.4741103316        0.1946334111
 H       -13.5506975959        9.3090614426        2.7341218948
 H       -13.5819593880       11.0301020046        3.0921190244
 H       -12.8928620622        9.8383028562        4.2509901935
 H        -9.6538116298       11.0470994363        3.5772102164
 H       -10.8686063066       10.5786443436        4.6696103472
 H       -11.1162748380       12.0754561349        3.8073841007
 H        -6.3790583600       10.3714756770       -0.3883147753
 H        -4.9767299374        9.2234638441       -0.4326217374
 H        -5.6610549347        9.6449279063        1.1147461849
 H        -7.8522051270        9.0781670797       -1.9664591859
 H        -7.7433937451        7.1727190952       -1.8341942864
 H        -6.3604228023        8.3396259123       -2.4487930423
 H        -6.2136919896        5.6343166821        3.1339822479
 H        -5.1924031031        4.1278977859        3.4408719479
 H        -6.4366639888        4.5840771231        4.6190248248
 H        -7.2192508776        1.7565662397        3.5760714820
 H        -5.7834807145        2.0773854015        2.6328254081
 H        -7.2385064741        1.7850983391        1.7237490323
 H       -13.6761471902        1.4129497893       -0.5486736770
 H       -12.3510825660        2.4973508426       -0.8249157507
 H       -13.8147931679        3.1039257427        0.1733637736
 H       -12.9750358766        1.0433854617        3.2845099026
 H       -13.9083442100        0.2267108495        2.0272703336
 H       -14.3037968628        1.8605603127        2.3382818620
 H        -8.0474084906       -3.1580164024        0.1205455577
 H        -6.5024814790       -2.4168355398        0.3725564217
 H        -6.8011205594       -3.5716375486       -1.0464684652
 H        -6.3470881244        0.3128037514       -2.2073217346
 H        -5.3640212371       -1.0668066479       -2.1771611017
 H        -5.5986886009       -0.3307496961       -0.6111172755
 H       -11.3064742684       -2.6087461142       -5.6042168123
 H       -10.7032073860       -1.8645201125       -7.0930016264
 H       -12.4687469631       -2.1823749211       -6.9436079423
 H       -10.8961708841        0.6303274166       -7.0957621001
 H       -12.1417534112        1.5310601306       -6.4055128873
 H       -12.4410152397        0.3283922589       -7.6841492277
 Na      -10.1898906705        5.8436937123        1.7644278656
