117

 C       -14.5552069750       -0.0824260225       -5.4399108003
 C       -13.2738592913       -0.7452263793       -4.9066462880
 O       -13.2906193982       -1.3430955981       -3.8514228448
 C       -11.8463155486       -0.6174758328       -5.6749529674
 C       -10.7965707002       -0.2228396572       -4.6215064607
 O       -10.8610385938        0.7724847221       -3.9577097981
 C        -9.4924625835       -1.1617430427       -4.6070440730
 C        -8.5121900110       -0.7427498052       -3.4932553336
 C        -8.0429175760       -1.8802144552       -2.5357729027
 O        -8.2685076971       -3.0637268726       -2.8182256501
 C        -7.4699176914       -1.4286825971       -1.1454348605
 C        -8.4724173047       -0.4363522025       -0.4218339256
 O        -8.1314725694        0.6259934305        0.0273121237
 C        -9.8688464569       -1.0221941911       -0.1370755159
 C       -10.9588123623        0.0465407581       -0.1242216870
 C       -11.3199661971        0.6476862234        1.2053916410
 O       -10.9331502190        0.1384832589        2.2746790208
 C       -12.4738924843        1.8905757738        1.3259520119
 C       -11.6463579482        3.0682445059        1.8988024607
 O       -11.2087404348        3.8452112966        1.0291535386
 C       -11.2050195682        3.1341668683        3.3716744551
 C        -9.6436021378        2.8063081274        3.4269930661
 C        -8.6482215297        3.9975640068        3.3515578033
 O        -8.9140703062        5.1217306876        3.7845744710
 C        -7.2013298229        3.7666607267        2.7067555758
 C        -7.2819642929        4.3384890049        1.2132472308
 O        -8.3597981827        4.5722797837        0.6853384194
 C        -5.9998764307        4.3650604785        0.3808951021
 C        -6.0646659617        5.5493469214       -0.5380735567
 C        -5.8332376285        6.9342634618        0.1877233713
 O        -5.0159685067        7.1470914791        1.0440158607
 C        -6.7575980519        8.1804528854       -0.2943540854
 C        -8.1986168114        8.1217016257        0.5533804721
 O        -8.8938674392        7.1316841654        0.2917449820
 C        -8.3567818841        9.0065290349        1.7981174843
 C        -9.3875955952        8.5642196695        2.8658829723
 C       -10.8707493947        8.8390567477        2.5136887653
 O       -11.5373625432        7.8942947753        2.0779374115
 C       -11.5211501118       10.1564525819        2.7602349133
 C       -11.3846068294       10.8077427819        1.2042915326
 O       -10.4006908528       11.4882438150        1.0052190043
 C       -12.4582668720       10.5956658229        0.2060145985
 C       -12.9682283616       10.1902043097        3.1810174370
 C       -10.6400938194       11.1056804772        3.6091546317
 C        -5.9442809935        9.5377982219       -0.0802853719
 C        -7.1104019778        8.0715046641       -1.7749881456
 C        -6.1145214876        4.5154403481        3.5351327969
 C        -6.8288284709        2.2322849218        2.6394373999
 C       -13.0095211289        2.2337218284       -0.0484935323
 C       -13.5462845254        1.3874243640        2.2760738509
 C        -7.1511854575       -2.6560444072       -0.2843888560
 C        -6.1939199813       -0.6477492989       -1.4416163357
 C       -11.4629069066       -1.9848697181       -6.3397795680
 C       -11.9830498309        0.5374717082       -6.7527858801
 H       -14.4988468536        0.9750921499       -5.4366976097
 H       -15.3750271546       -0.3764218770       -4.8335038452
 H       -14.6508168427       -0.2087085806       -6.4999458013
 H        -9.1037919176       -1.1515644828       -5.5847023423
 H        -9.7147397904       -2.2158886340       -4.4273766027
 H        -8.9777047913        0.0138570731       -2.9798371169
 H        -7.6765180766       -0.2485951964       -3.9984137764
 H        -9.7527719526       -1.4869416414        0.8067553014
 H       -10.0480153105       -1.8301246617       -0.8641728613
 H       -11.7545388248       -0.5176141851       -0.5336008230
 H       -10.6990906338        0.8134982543       -0.8969551978
 H       -11.8716355056        2.5500560762        3.9955906221
 H       -11.3373408549        4.2397549894        3.5934105523
 H        -9.4115527623        2.1714693674        2.5877555123
 H        -9.4852158214        2.2730011872        4.3484756351
 H        -6.0094322098        3.3870793018       -0.1564324332
 H        -4.9782931376        4.4726710651        0.8561557311
 H        -6.9648666679        5.5287684242       -1.1754844810
 H        -5.2350264050        5.5193583344       -1.2618699044
 H        -8.5786016373       10.0411266251        1.4954810915
 H        -7.4623284047        9.1864691197        2.3209651122
 H        -9.2154382062        9.1082777966        3.7741210150
 H        -9.3034928062        7.4466615508        3.0550753717
 H       -12.1652294294       11.0326794201       -0.7914969338
 H       -13.3509483991       11.0906366763        0.5422824229
 H       -12.7131595280        9.5109175294        0.1993471141
 H       -13.6192922807        9.5439358678        2.7036032268
 H       -13.3425850210       11.1893914911        3.0472730154
 H       -12.9961623085        9.9129856973        4.2306783595
 H        -9.7428105814       11.4058320902        3.0876037822
 H       -10.3398846216       10.6266433864        4.5086375362
 H       -11.2721409598       11.9531790713        3.8231167448
 H        -6.3877011472       10.2784662068       -0.7391496480
 H        -4.9500450034        9.3803634339       -0.3578787858
 H        -5.8355637786        9.9489794064        0.9382298240
 H        -7.5469715465        9.0242416959       -1.9303847315
 H        -7.7157740639        7.1765967423       -1.9972857876
 H        -6.1662259884        8.1440378204       -2.3421141831
 H        -5.8166162639        5.4389764246        2.9886392859
 H        -5.2368719557        3.8660602391        3.7813420528
 H        -6.5068869697        4.8466173473        4.5331688485
 H        -7.2149521268        1.7189113590        3.4920181585
 H        -5.7261606563        2.1234155135        2.7026318836
 H        -7.1072367825        1.8313609860        1.7004118389
 H       -13.2923487310        1.3284603848       -0.6767269644
 H       -12.3263469229        2.7727890451       -0.6694503345
 H       -13.8797144219        2.8407333237        0.1251389414
 H       -12.9999284700        1.2386281573        3.2029598050
 H       -14.0498041515        0.4995251394        2.0486281082
 H       -14.4184362915        2.0922382111        2.3609293770
 H        -7.8742636062       -3.4637716870       -0.1353498476
 H        -6.7330312609       -2.3531093156        0.7191990305
 H        -6.3400371374       -3.1915598698       -0.8348320902
 H        -6.4733381972        0.3230242896       -1.9303278609
 H        -5.5469634180       -1.0187940702       -2.2593321396
 H        -5.6604545520       -0.5369449930       -0.5194000988
 H       -11.3028824809       -2.8285549690       -5.6193395138
 H       -10.5577918375       -1.8739961583       -6.9469636886
 H       -12.2627797886       -2.2055454747       -7.0386817650
 H       -11.0497109309        0.7111618683       -7.2802535045
 H       -12.1752655287        1.5345567118       -6.2774043526
 H       -12.6832864599        0.3449048479       -7.5194584236
 Na      -10.3140213546        5.8745913570        1.6505857969
