117

 C       -14.4773685235       -0.0912171114       -5.6015391446
 C       -13.3060617712       -0.7538558528       -4.9132068249
 O       -13.3344349630       -1.2363500468       -3.8270278241
 C       -11.9237846240       -0.6778554112       -5.6798251324
 C       -10.8041798962       -0.2615524887       -4.6396613056
 O       -10.9387141400        0.7313294563       -3.9729940326
 C        -9.5273725040       -1.0518236749       -4.6523768377
 C        -8.4718155480       -0.7558503865       -3.4560119283
 C        -8.1626560419       -1.8953252994       -2.5271436383
 O        -8.1526989086       -3.0636334290       -2.8113168910
 C        -7.4225481852       -1.3640159776       -1.1093658026
 C        -8.4559028231       -0.4433051067       -0.2724035559
 O        -8.1336503544        0.6753812125        0.0564094579
 C        -9.9013906194       -1.0239242312       -0.0537571734
 C       -10.9371804590        0.0988660530       -0.0646248489
 C       -11.3720170681        0.5649018576        1.3454957202
 O       -10.9271017785        0.1263027896        2.3588878317
 C       -12.3592416071        1.8256378328        1.3493484322
 C       -11.5604208556        3.1035300291        1.8816043228
 O       -11.2150419452        3.9641815094        1.0574310231
 C       -11.1339728735        3.2602520437        3.3016183018
 C        -9.6571997887        2.8118115288        3.3906256709
 C        -8.6694558078        3.9497563385        3.3427120758
 O        -9.0276871730        5.0566250024        3.7671962593
 C        -7.1987960088        3.7918008704        2.7660762354
 C        -7.3278137382        4.2699492481        1.2405451126
 O        -8.4278862349        4.4966012322        0.7744129044
 C        -6.0368097121        4.4106939886        0.4081962587
 C        -5.9930439627        5.6379750762       -0.5303196631
 C        -5.8261153242        7.0059649765        0.1093238917
 O        -5.0104095592        7.1225385741        0.9872474466
 C        -6.8105544453        8.1848717798       -0.3520708603
 C        -8.0387215047        7.9464001446        0.6355918009
 O        -8.8129265239        7.0857693274        0.3201167830
 C        -8.3394338812        8.9803154766        1.6868503073
 C        -9.3554862613        8.5783693647        2.8495842133
 C       -10.8725696298        8.7089587595        2.5572872311
 O       -11.5770430214        7.8434349492        2.1784965286
 C       -11.4259432865       10.2480342526        2.6511191039
 C       -11.3233621572       10.8416713692        1.1829368983
 O       -10.3329215723       11.4672040837        0.8722380077
 C       -12.4689844554       10.5977320061        0.2423603533
 C       -12.9204957901       10.1763550194        3.1246755027
 C       -10.5747361151       11.1667702910        3.5923523327
 C        -6.0643424053        9.4897977297       -0.1007141698
 C        -7.0785979205        7.9821864849       -1.8377376731
 C        -6.1072233325        4.5338146126        3.5266072476
 C        -6.8722309400        2.2482447614        2.6386205156
 C       -12.9415326972        2.1514550804       -0.0583430298
 C       -13.6178246192        1.4745498382        2.2465018246
 C        -7.1329013072       -2.5986531221       -0.1873441582
 C        -6.1664754229       -0.6128733965       -1.3709409037
 C       -11.6590246984       -2.0064859284       -6.3891795502
 C       -11.9728923844        0.4623923050       -6.6933220967
 H       -14.3645350351        0.9971293840       -5.6590782039
 H       -15.3122250894       -0.2596993086       -5.0262214553
 H       -14.5908886547       -0.3034150846       -6.6831170402
 H        -9.1358639123       -1.0210197980       -5.6367962430
 H        -9.7851553073       -2.0456982987       -4.5205306241
 H        -8.7396070256        0.1664970683       -2.9504496998
 H        -7.4745841550       -0.5558370763       -3.9650009524
 H        -9.9772823164       -1.5946722987        0.8926665203
 H       -10.0248346852       -1.7245933338       -0.8666020015
 H       -11.6962270024       -0.3327759174       -0.6465569993
 H       -10.5294062339        0.9532580600       -0.6792088330
 H       -11.7868497007        2.6237745941        3.9154165212
 H       -11.2140864590        4.2814205611        3.6050678334
 H        -9.4154810004        2.0912727533        2.6321330934
 H        -9.6181074282        2.3383954002        4.3200351146
 H        -5.9092237256        3.4975572719       -0.1212757731
 H        -5.0956299397        4.5376598003        0.9701913812
 H        -6.8878403534        5.6201346253       -1.2035337371
 H        -5.1272119796        5.5381308207       -1.2377902987
 H        -8.6048493080        9.9153870288        1.1766319302
 H        -7.5144982116        9.3532852937        2.2836596194
 H        -9.1568460827        9.2727527824        3.6461452772
 H        -9.1341231546        7.5688708902        3.1943306662
 H       -12.0996557089       10.9574590254       -0.7498085033
 H       -13.3570303668       11.1022263897        0.5071615606
 H       -12.7372712180        9.5282656061        0.2370885844
 H       -13.5057212458        9.5094777351        2.5295206670
 H       -13.3888814827       11.1288925682        3.0660353935
 H       -12.9633316324        9.7682502912        4.1018137518
 H        -9.7234742540       11.6437919642        3.1348813764
 H       -10.2717681968       10.6196722742        4.4968627773
 H       -11.3130084460       11.9381289709        3.9058947301
 H        -6.5350367079       10.2743098581       -0.6632847089
 H        -5.0343120811        9.4065772990       -0.4384859111
 H        -5.9365766839        9.7748766225        0.8915190322
 H        -7.3393629484        8.9452149469       -2.2371054075
 H        -7.7431381295        7.2031437090       -2.0278439393
 H        -6.0852733091        7.7629261235       -2.1752015638
 H        -5.6609209353        5.2974046085        2.9244392138
 H        -5.4015750042        3.8372447192        3.9881760694
 H        -6.5554284606        5.0684926022        4.3800859355
 H        -6.9421517000        1.7379279151        3.5496022743
 H        -5.8212582185        2.2416493710        2.3091079894
 H        -7.4035997339        1.8338697893        1.7864142191
 H       -13.1689233625        1.3343637633       -0.6754172729
 H       -12.3225321669        2.7973557680       -0.6378504409
 H       -13.8092620192        2.7143382010        0.1469933146
 H       -13.3510713237        1.0840507616        3.2229225806
 H       -14.3125934218        0.8645094177        1.7600628682
 H       -14.2562359445        2.4040940393        2.3310477800
 H        -7.8314480082       -3.4020828654       -0.4039544767
 H        -7.1152309467       -2.3745747176        0.8996103546
 H        -6.2066487546       -3.0689541182       -0.3929981486
 H        -6.2544256485        0.3178372156       -1.8032989833
 H        -5.5451826254       -1.1059569345       -2.1659083648
 H        -5.6644092973       -0.6202203924       -0.3923176362
 H       -11.6916874929       -2.8611725335       -5.7311827311
 H       -10.6313335311       -1.9092777499       -6.7769384346
 H       -12.2673155969       -2.1501695446       -7.2696406075
 H       -11.0836996693        0.6171052812       -7.3349177261
 H       -12.1047146698        1.4187346789       -6.2060885777
 H       -12.8013835207        0.3134149912       -7.4051413699
 Na      -10.3872979521        5.8942912879        1.5578869549
