117

 C       -14.4925602147       -0.1551899158       -5.6605374035
 C       -13.3232023711       -0.6799136746       -4.8949474724
 O       -13.4408330945       -1.1969678573       -3.7646427523
 C       -11.9078183568       -0.6417034387       -5.7440989871
 C       -10.7465614997       -0.2991563560       -4.6368560406
 O       -11.0157648286        0.6951157007       -3.9284880378
 C        -9.4489238432       -1.1770799004       -4.5708434318
 C        -8.4431589480       -0.6738744487       -3.4414766765
 C        -8.0603812812       -1.7735640867       -2.4702694214
 O        -8.1281851866       -2.9421087038       -2.7048066115
 C        -7.4394599179       -1.3697717699       -1.0518666779
 C        -8.4844136506       -0.4874305940       -0.3228737862
 O        -8.1565550081        0.6376629415        0.0751178504
 C        -9.8901333224       -1.0035311116        0.0215584763
 C       -10.9315932347        0.1514745251        0.0300183373
 C       -11.3544644265        0.6152431049        1.3844939347
 O       -10.9880350770        0.1328808038        2.4097030142
 C       -12.3466976191        1.8853445824        1.3372621407
 C       -11.5809991106        3.0751892828        1.7936647687
 O       -11.4118795398        3.9577914928        0.9938314728
 C       -11.0576767286        3.2046803434        3.3033005190
 C        -9.6057029175        2.7419764052        3.4473820945
 C        -8.7067774777        3.9615338307        3.3520333600
 O        -9.0545574377        5.0763505604        3.6517383885
 C        -7.2405031456        3.7809024153        2.7409083560
 C        -7.3454804526        4.2996811070        1.2985816802
 O        -8.4280356868        4.4758723379        0.7692325157
 C        -6.0633617484        4.4279901676        0.5021166444
 C        -5.9918558127        5.5654501556       -0.5603415225
 C        -5.8559924473        6.9259804350        0.1706507104
 O        -4.9837629695        7.1579676340        0.9965445239
 C        -6.7295354835        8.1458718746       -0.3793118837
 C        -8.0870856106        7.9916599018        0.4896421504
 O        -8.7606754133        6.9769236824        0.3352258672
 C        -8.3461239211        9.0155236314        1.6278762978
 C        -9.2705930816        8.4799236311        2.7844805858
 C       -10.7367191661        8.8241866350        2.4873608073
 O       -11.5052690005        7.8796881321        2.3216063162
 C       -11.3675720246       10.2692437852        2.6191582819
 C       -11.2735376028       10.8719964779        1.1112630757
 O       -10.2487747934       11.4119155641        0.7320103964
 C       -12.4905873154       10.5787508834        0.2142029763
 C       -12.8181700060       10.1099602111        3.0801434589
 C       -10.6268768231       11.1422112496        3.6159253503
 C        -6.0969483842        9.5025978416       -0.0827457638
 C        -7.1572783320        7.9629718801       -1.8827215169
 C        -6.2362335653        4.5698679363        3.5724697850
 C        -6.8474417488        2.2307811757        2.6386191450
 C       -12.8856162696        2.1143531066       -0.1125928830
 C       -13.5182298692        1.5783757488        2.2979419665
 C        -7.2093632220       -2.6166440902       -0.1455451976
 C        -6.1470745561       -0.5726532115       -1.3427260818
 C       -11.8616040188       -2.0386755114       -6.4480607552
 C       -11.8549083950        0.4678454859       -6.7660377237
 H       -14.4973358860        0.9163400425       -5.9181311972
 H       -15.4317998722       -0.3322803296       -4.9978538370
 H       -14.5590601308       -0.6132634327       -6.6349410502
 H        -9.0481654001       -0.9546669189       -5.5858333985
 H        -9.5766147587       -2.2507533297       -4.5495646714
 H        -8.9924761253        0.2430942487       -2.9360266674
 H        -7.5677600731       -0.2567187738       -3.9634973060
 H        -9.7990571655       -1.3514621592        1.0962208482
 H       -10.0445405887       -1.8978175777       -0.6171871420
 H       -11.7777613458       -0.2690165081       -0.5834764286
 H       -10.5128015986        0.9669700102       -0.5098799691
 H       -11.6732083773        2.5667832333        3.9302626383
 H       -11.1208133487        4.2044739658        3.6230271832
 H        -9.3209982739        2.0248463245        2.6756199070
 H        -9.5683874607        2.2077309952        4.4071464867
 H        -5.9728979069        3.4512408731        0.0497254901
 H        -5.1809176058        4.5021884910        1.0532927465
 H        -6.9911153376        5.5713503852       -1.0143747054
 H        -5.2761941414        5.4192473470       -1.3938634160
 H        -8.6256475328       10.0155525842        1.2986660699
 H        -7.4120645283        9.3113129120        2.1880115395
 H        -8.9644986269        8.8101030319        3.8008220168
 H        -9.2260585928        7.4348758383        2.7530347322
 H       -12.2131326175       10.8644323404       -0.7433596847
 H       -13.3918420375       11.1651929882        0.5535171928
 H       -12.8126546604        9.5627016242        0.2663614010
 H       -13.3720144947        9.4283222728        2.3888926424
 H       -13.2888173279       11.0735246526        2.9798552957
 H       -12.9480704722        9.6947444837        4.0565982036
 H        -9.6332093801       11.4079046805        3.1806912262
 H       -10.4882817604       10.6695502042        4.6326443220
 H       -11.2137266152       12.0661109526        3.7106468616
 H        -6.8664124828       10.2204220122       -0.2777168463
 H        -5.2512767694        9.7654091422       -0.7636876604
 H        -5.6570793113        9.6469168864        0.8780846145
 H        -7.4370919043        8.9437985923       -2.2593974425
 H        -7.9952463255        7.3122440975       -1.8283903258
 H        -6.3690370882        7.5007298148       -2.3904775875
 H        -5.6349251547        5.2108733012        2.9652735094
 H        -5.7223773165        3.9200767570        4.2300833581
 H        -6.7594564988        5.2443147175        4.1978012299
 H        -6.5533306516        1.9220733546        3.6637967325
 H        -5.9903168588        2.2043439517        2.0279045233
 H        -7.5808978284        1.5969317414        2.1147667793
 H       -13.3298520108        1.2685887505       -0.5112148960
 H       -12.0763358934        2.4104194088       -0.7528502293
 H       -13.5610403284        2.9498622587       -0.1381614883
 H       -13.2883887382        1.0436375212        3.2235669881
 H       -14.3390721725        1.1002062788        1.6637560053
 H       -14.0332191643        2.4574669699        2.5390883597
 H        -7.8386935989       -3.4339243562       -0.4424226437
 H        -7.2538568327       -2.4130256846        0.8767650673
 H        -6.2176847851       -3.0316631009       -0.2480077687
 H        -6.2567806163        0.2807898526       -1.9800431932
 H        -5.5825299350       -1.1577231822       -2.0137339038
 H        -5.6070235388       -0.3774599943       -0.4110901646
 H       -12.0026178526       -2.7703969982       -5.6946380963
 H       -10.8867208957       -2.1889610604       -6.8857769505
 H       -12.5603198725       -2.1779705648       -7.2741469328
 H       -10.9010456850        0.5333362113       -7.3088498135
 H       -11.9799333225        1.4554249114       -6.3605844727
 H       -12.6406782179        0.3325754261       -7.5742522114
 Na      -10.3703368243        5.9433713445        1.5455745917
