117

 C       -14.4659290134       -0.2386991760       -5.9900389069
 C       -13.3655484699       -0.5900355534       -4.9460052053
 O       -13.5773626043       -0.6229722249       -3.7479683062
 C       -11.8792024299       -0.7397871094       -5.5466126459
 C       -10.8865213912       -0.3066660183       -4.3841352285
 O       -11.2617422072        0.5680568996       -3.6332364431
 C        -9.5773284255       -1.2002730529       -4.2749710648
 C        -8.4819879565       -0.6214879470       -3.2157626976
 C        -8.1021019209       -1.7611470738       -2.2569185090
 O        -8.2401158736       -2.9438539377       -2.5400868443
 C        -7.4485527985       -1.2924388002       -0.9263094230
 C        -8.4148924647       -0.3894926096       -0.1316629031
 O        -8.1043567365        0.7996826156        0.0424915865
 C        -9.8132007269       -0.9107344775        0.3263382248
 C       -11.1066655997       -0.0297621715        0.0458838270
 C       -11.6362656495        0.6118557320        1.2930218706
 O       -11.1594666686        0.3070680852        2.4036029073
 C       -12.6831866300        1.8406804400        1.3655150283
 C       -11.8439656988        3.0374134363        1.8859343845
 O       -11.7379794469        4.0707187413        1.2395966660
 C       -11.2095311840        2.9338052485        3.3135228454
 C        -9.7076790514        2.6446485328        3.2887091098
 C        -8.7481544430        3.8844451057        3.2360032258
 O        -9.1983937950        4.9677750445        3.5182664930
 C        -7.2866067078        3.7496271319        2.8304982324
 C        -7.2217643974        4.2820150802        1.2638309672
 O        -8.2362417724        4.5932712123        0.6611923534
 C        -5.9565613095        4.4106571930        0.4916376744
 C        -6.1272586756        5.4642558173       -0.6277185021
 C        -6.0494795464        6.8928174933        0.0035973556
 O        -5.2762250461        7.0706023053        0.9082841250
 C        -6.7505392519        8.1350466743       -0.5665162793
 C        -7.9579291095        8.1822826953        0.4664160539
 O        -8.9750960495        7.4985934545        0.2124942525
 C        -7.9049774990        9.0391389548        1.6920754688
 C        -8.9486262241        8.5575430791        2.7616203337
 C       -10.4804185996        8.7774305836        2.4482014832
 O       -11.2097339495        7.7848053068        2.2010229072
 C       -11.1775452403       10.2007194649        2.4817863403
 C       -11.1170423517       10.6109739523        0.9281111232
 O       -10.0258397963       10.8911505256        0.4642155523
 C       -12.3502603849       10.6681328730        0.0574352610
 C       -12.6112857698       10.0485959987        2.9868424535
 C       -10.4301991434       11.2970511016        3.2966092889
 C        -5.8597125627        9.3926909088       -0.4617341130
 C        -7.3057187740        7.9656203911       -2.0741377380
 C        -6.4782457545        4.8735881424        3.6457871485
 C        -6.7526051734        2.3145247091        3.0230390216
 C       -13.0744104197        2.2441586701       -0.0972117730
 C       -13.8387224301        1.4238117780        2.2304639713
 C        -7.0733756598       -2.5029758675       -0.1199084943
 C        -6.0720915683       -0.5381888432       -1.3119774153
 C       -11.6053270548       -2.1998176041       -6.1461502109
 C       -11.6695404392        0.2798834991       -6.7214623241
 H       -14.3438365075        0.7432983800       -6.4148177787
 H       -15.5145277558       -0.2052697239       -5.5412570879
 H       -14.5303279388       -0.9581477905       -6.7572043953
 H        -9.2029239150       -1.2531728857       -5.2600126136
 H        -9.8082240548       -2.1594439576       -3.9779982635
 H        -8.9605180655        0.2658846382       -2.6459727515
 H        -7.5904655887       -0.2865477430       -3.7126644581
 H        -9.7114245572       -1.0481200640        1.4115455052
 H        -9.8130625489       -1.9110175504       -0.1070909105
 H       -11.7792087535       -0.8367608071       -0.3826186765
 H       -10.9154961436        0.6501392053       -0.7310925673
 H       -11.7822786827        2.2266475335        3.9136449481
 H       -11.3500566550        3.9118361241        3.7193920604
 H        -9.5528589440        1.9478332516        2.5073344456
 H        -9.3908025746        2.0685694907        4.1309072997
 H        -5.5510622891        3.4809443152        0.0869558071
 H        -5.1592023900        4.7283742780        1.1083111695
 H        -7.0391250981        5.1346093123       -1.1883484709
 H        -5.2699196051        5.3758551842       -1.3618983842
 H        -7.9378766527       10.1005396778        1.5301338616
 H        -6.9038164971        8.9682417773        2.2016757760
 H        -8.8821471157        9.0052841409        3.7618446817
 H        -8.7434494184        7.5508065089        2.9647096491
 H       -12.0616751645       11.0223131172       -0.8939193647
 H       -13.1073626812       11.3290693548        0.6174882278
 H       -12.8608399709        9.7247560676       -0.0086508121
 H       -13.1609094559        9.2641717788        2.4786263806
 H       -13.1663115530       10.9509517724        2.9941364579
 H       -12.5456808408        9.7721135356        4.0028965255
 H        -9.5914961944       11.6030206899        2.6716255256
 H       -10.1359184961       10.8736982990        4.2525060963
 H       -10.9276160552       12.1977705619        3.5205876007
 H        -6.4785418018       10.2456136912       -0.5679734133
 H        -5.1738103018        9.5216394102       -1.2727382324
 H        -5.3602872723        9.5199526665        0.4877823189
 H        -8.0191754660        8.7318588349       -2.2894655237
 H        -7.8375421704        7.0335473429       -2.0668650044
 H        -6.4518171242        7.8632243100       -2.6573455899
 H        -5.4156363497        4.5387841998        3.8758846842
 H        -7.0767680320        5.0629695462        4.5510811181
 H        -6.3832022216        5.8214997242        3.0950568195
 H        -7.2528554247        1.8606132795        3.9042741186
 H        -5.7241203771        2.3310493392        3.0971929789
 H        -7.1175767421        1.8041749502        2.1496606937
 H       -13.3976630220        1.3902755884       -0.6531483029
 H       -12.2397267453        2.6941017367       -0.5580323588
 H       -13.8501960595        2.9677106382       -0.1703246588
 H       -13.5437482317        1.2121252232        3.2587707938
 H       -14.2045112904        0.4627082682        1.7229277579
 H       -14.5805628322        2.1189986615        2.3715383812
 H        -7.9756777265       -2.8306153833        0.4206256033
 H        -6.2952161214       -2.3247052371        0.5936347284
 H        -6.7159628092       -3.4210097885       -0.6461404806
 H        -6.3114853330        0.5042138674       -1.7231672630
 H        -5.3652425994       -1.0262224232       -1.9477778311
 H        -5.6332709347       -0.1853437981       -0.3592765816
 H       -11.7034974926       -2.9787762320       -5.3837158360
 H       -10.5758952421       -2.1966117523       -6.5241636802
 H       -12.2540775560       -2.5309383830       -6.9785700612
 H       -10.7232359123        0.2302766590       -7.2272072774
 H       -11.8503580223        1.3232622252       -6.5248937893
 H       -12.4577511769        0.1288339823       -7.4821580120
 Na      -10.1203777041        5.7909619178        1.5328161718
