117

 C       -14.4471299920       -0.2955616847       -6.0132445744
 C       -13.4093066656       -0.5730070578       -5.0321725544
 O       -13.6761915002       -0.5687324119       -3.8766857052
 C       -11.8586743332       -0.7364672842       -5.4525760662
 C       -10.8943928404       -0.3176794228       -4.2789957888
 O       -11.0918477194        0.5876232255       -3.5339098230
 C        -9.6034471409       -1.0768665780       -4.2039426319
 C        -8.5592138657       -0.6256163609       -3.0990192585
 C        -8.1021467340       -1.7844323616       -2.1818606556
 O        -8.3276813886       -2.9245045525       -2.5337691287
 C        -7.4436984878       -1.3058267557       -0.8393858624
 C        -8.4587373491       -0.2839380688       -0.1734167208
 O        -8.1455861651        0.8416321349        0.0702653722
 C        -9.8422712624       -0.9501724754        0.2232757985
 C       -11.0504225784        0.0489325379        0.0755052154
 C       -11.5761472621        0.6189154437        1.3400441816
 O       -11.2015709954        0.2754929069        2.4931323910
 C       -12.6393258221        1.7679131153        1.2932036770
 C       -11.9147818319        3.0250388181        1.9624779232
 O       -11.6982075692        4.0240403629        1.2976653322
 C       -11.1718828068        2.8789632922        3.3272116576
 C        -9.6815207741        2.6485909930        3.0869683176
 C        -8.8329800645        3.9354184092        3.2833731640
 O        -9.2797887978        4.9996407847        3.7225201270
 C        -7.3749114837        3.8305667131        2.7435068711
 C        -7.2700424960        4.2635675087        1.2624452531
 O        -8.3075638561        4.6186080602        0.7274369153
 C        -5.9251861470        4.3399095457        0.5103283113
 C        -6.0348805823        5.4193480015       -0.5642415750
 C        -5.8875521904        6.9105441714       -0.0415216624
 O        -5.3415502532        7.0688834200        1.0143239892
 C        -6.8213517165        8.1008464511       -0.5926037672
 C        -8.0289656943        8.2244301911        0.3839977863
 O        -9.0455399083        7.5977597278        0.1554258612
 C        -7.8522751829        8.9589712148        1.7098312523
 C        -8.8923527987        8.6191483199        2.7297986269
 C       -10.3583498311        8.8298030826        2.3972529487
 O       -11.0731037603        7.8333191586        2.1623834854
 C       -11.0557181876       10.1903172974        2.4025263779
 C       -11.0512999413       10.6649522174        0.8344781308
 O        -9.9666417239       10.7611609641        0.3294216314
 C       -12.3513492652       10.6643474830        0.0846161573
 C       -12.5076777931        9.9762419473        2.9400058985
 C       -10.3395271653       11.2920160003        3.2827460275
 C        -5.9754517280        9.3588640730       -0.4979523856
 C        -7.3872635329        7.9509612122       -2.0373892562
 C        -6.4816968513        4.8275147141        3.5323423681
 C        -6.7279760495        2.3742226552        2.9823465669
 C       -13.0904503481        2.2448487780       -0.1548501803
 C       -13.9032810957        1.3351023225        2.1520733111
 C        -7.0426075281       -2.4841181442        0.1077910299
 C        -6.1794943053       -0.5198437334       -1.3744381866
 C       -11.6270702206       -2.1658895018       -5.9748373084
 C       -11.6505729809        0.2131449231       -6.6827375844
 H       -14.5283628723        0.7722576339       -6.3574583076
 H       -15.3868017389       -0.5043090792       -5.5921207512
 H       -14.3902342149       -1.0461687778       -6.8699561143
 H        -9.1910708916       -1.0292818015       -5.2049468429
 H        -9.8018892344       -2.1377803722       -3.9450139465
 H        -8.9982177859        0.2601483076       -2.5086395616
 H        -7.6214489053       -0.2883193621       -3.6212463464
 H        -9.7026081232       -1.1907551844        1.2923526525
 H        -9.8450416133       -1.9396357698       -0.3143054607
 H       -11.8098661021       -0.5856218945       -0.4478833646
 H       -10.7668086629        0.8350389939       -0.6154991190
 H       -11.5621254116        2.0363014335        3.8177560291
 H       -11.3273913742        3.7278903474        3.9691467373
 H        -9.5141047090        2.0932406578        2.1740139962
 H        -9.3034547491        1.9158658242        3.8372660380
 H        -5.6148381857        3.4162458298        0.0534983013
 H        -5.0901260177        4.5777380055        1.1112272285
 H        -6.9720581011        5.2068258222       -1.0635329134
 H        -5.2473432651        5.2020215221       -1.3053044350
 H        -7.8386684422       10.0616451863        1.5958497473
 H        -6.8736460869        8.8280116787        2.1988282933
 H        -8.8389893193        9.1447427048        3.6400127130
 H        -8.7070799212        7.5872862519        3.0749715179
 H       -12.0995003246       10.8616552883       -0.9802910898
 H       -13.1173551705       11.2592108600        0.4869543608
 H       -12.7098237943        9.6541328534        0.1543392919
 H       -13.0265896907        9.2156668871        2.4514990361
 H       -13.0121652862       10.9259603497        2.8658321242
 H       -12.5123349958        9.7941290889        4.0119717789
 H        -9.5585713706       11.8697418958        2.7590210689
 H       -10.0070037879       10.8209484843        4.2052525014
 H       -11.0162381946       12.0714040513        3.6387652212
 H        -6.3545776153       10.2430518211       -0.9719351522
 H        -5.0960998708        9.1878137191       -1.0115404186
 H        -5.7781523799        9.6626779459        0.5329917473
 H        -7.8023050294        8.8720119599       -2.2857242130
 H        -8.1655110435        7.2146053696       -2.0705624934
 H        -6.5390324946        7.6926786500       -2.6347215407
 H        -5.4808223358        4.3967269366        3.6109213588
 H        -6.9060335204        5.0746444460        4.4951833716
 H        -6.3757576960        5.7435642519        2.9600031083
 H        -6.9438398791        2.1327093541        4.0126999195
 H        -5.6404222640        2.4479502201        2.8083806106
 H        -7.2479327511        1.6776155841        2.3739795644
 H       -13.2666304644        1.3921608250       -0.8037551046
 H       -12.4345648687        2.9310199473       -0.5748787814
 H       -14.0318598947        2.6812469617       -0.0821844690
 H       -13.6605190713        1.3432826188        3.2292488377
 H       -14.2455045574        0.3822682638        1.8805319621
 H       -14.6820137406        2.1442993412        2.1564326238
 H        -7.8679095292       -2.8447154548        0.6799590877
 H        -6.2639829469       -2.1946727920        0.8006259775
 H        -6.5962518223       -3.3318699238       -0.3969849607
 H        -6.6297678209        0.4797804730       -1.6667432856
 H        -5.6171879234       -0.9636723785       -2.2152755702
 H        -5.4889335081       -0.1862226512       -0.6547784125
 H       -11.8092815140       -2.9880864099       -5.2633571055
 H       -10.6518123833       -2.2624868362       -6.4005733522
 H       -12.3186237185       -2.3417062850       -6.7807360834
 H       -10.6208698221        0.3548495959       -7.0083211926
 H       -12.0795355681        1.2506826695       -6.5599364022
 H       -12.2043431993       -0.0756627359       -7.5429864994
 Na      -10.1220849731        5.7508013666        1.3941897633
