117

 C       -14.4579104173       -0.3930653380       -6.1973210951
 C       -13.4517862266       -0.4982809962       -4.9882312397
 O       -13.7139764020       -0.5885963064       -3.7990592075
 C       -11.8886199536       -0.6540889885       -5.4341648115
 C       -10.8619853114       -0.2912667937       -4.2665954953
 O       -11.0641927880        0.6367560355       -3.4714329557
 C        -9.4953122864       -1.1140987686       -4.2133006553
 C        -8.7198695803       -0.6579637324       -3.0966592575
 C        -8.2270323479       -1.7605350320       -2.1765326775
 O        -8.3484235052       -2.9387861347       -2.3593257213
 C        -7.4999104551       -1.2012456070       -0.8647267365
 C        -8.4345139348       -0.3320876027       -0.0985106991
 O        -8.2553454402        0.8445857009        0.0982132299
 C        -9.8581591630       -0.9207523331        0.2017791116
 C       -10.9622868422        0.1736588969        0.0616267117
 C       -11.5116783670        0.6382523148        1.4080709769
 O       -11.2375170313        0.1270671426        2.4249590894
 C       -12.5931662840        1.8339547443        1.3014214913
 C       -11.8751301680        2.9913024724        1.9539995064
 O       -11.6953387638        4.0291104993        1.3365213398
 C       -11.2166001508        2.8629806332        3.3289943125
 C        -9.6803975033        2.6988019315        2.9970365818
 C        -8.8539280203        3.9198233270        3.2475385458
 O        -9.3280314377        4.9152390557        3.8072737561
 C        -7.3364030020        3.9265194976        2.7587610202
 C        -7.3481688476        4.2656472648        1.2520581105
 O        -8.3443070580        4.6347226258        0.6550568201
 C        -6.0280570434        4.3348124413        0.5177586295
 C        -5.9712328094        5.4891968639       -0.5962041328
 C        -6.0387607091        6.8241542953        0.1005352192
 O        -5.3427887552        7.0889689076        1.0883222739
 C        -6.8166545224        8.0685216359       -0.6038393571
 C        -8.0968903743        8.1340826172        0.3554172952
 O        -9.1383877046        7.6095771493        0.0807261127
 C        -7.8280770532        8.8877044896        1.6710151008
 C        -8.7863104816        8.6730703132        2.8508351339
 C       -10.3349583652        8.7971856633        2.4236130137
 O       -10.9338233556        7.8315539409        2.0772842995
 C       -11.0062398477       10.2205717683        2.3464437434
 C       -10.9553518324       10.5305145437        0.7756295776
 O        -9.9019870582       10.7554079112        0.2135116069
 C       -12.3215162070       10.6332357707        0.1204529765
 C       -12.4298083927        9.9948878864        2.8890430055
 C       -10.2416875303       11.2272243731        3.1807075222
 C        -5.9375015991        9.3875312797       -0.5859770391
 C        -7.3820748371        7.8231871437       -2.0110967802
 C        -6.3931796303        4.9168953986        3.5608351179
 C        -6.7356922540        2.4308742643        2.8936340563
 C       -13.0935802916        2.1156661446       -0.1132478771
 C       -13.8599929872        1.3294639083        2.0473687792
 C        -7.0506481744       -2.3633697374        0.1463679238
 C        -6.2376179404       -0.5069624811       -1.2959168204
 C       -11.7148989758       -2.1326868533       -5.7710473094
 C       -11.5360559065        0.2259611581       -6.5988905159
 H       -14.6069994841        0.6864222987       -6.4080029788
 H       -15.4647178280       -0.7555082667       -5.9751955195
 H       -14.1935577181       -1.0120146550       -7.0945494100
 H        -8.9736446331       -1.0289599367       -5.2201213055
 H        -9.7046248391       -2.2285916357       -3.9429573327
 H        -9.3524953735        0.0011208577       -2.5318527398
 H        -7.8201034484       -0.0477239414       -3.4402003071
 H        -9.9046512519       -1.3468892890        1.2283021999
 H        -9.9232684476       -1.7645526690       -0.5004956117
 H       -11.6738360660       -0.3596554437       -0.4934560832
 H       -10.5842388581        1.0057637176       -0.6234816516
 H       -11.5691157709        1.9764485975        3.8652585068
 H       -11.4486223814        3.7403621854        3.9525939978
 H        -9.5768951506        2.3672294080        1.9160053496
 H        -9.2102496279        1.8112122685        3.5161313242
 H        -5.8467089125        3.3551254643        0.0927140183
 H        -5.1050566879        4.5037469184        1.1212304995
 H        -6.7749755652        5.3323159729       -1.2774254079
 H        -5.0431190628        5.4575921509       -1.1181975856
 H        -7.9218195122        9.9679010425        1.3597472782
 H        -6.8259214532        8.8859272902        2.0391677589
 H        -8.6655007176        9.2181396399        3.7796607815
 H        -8.6331770036        7.6056732263        3.1966618493
 H       -12.0721881954       10.9161028499       -0.9015251987
 H       -12.8807259677       11.3769031142        0.5941743104
 H       -12.9222609882        9.7148281045        0.1043584825
 H       -12.8358430367        9.1469418781        2.3314140207
 H       -13.0499186005       10.8970345477        2.8160811795
 H       -12.4455787278        9.7875718195        3.9689919965
 H        -9.3740224610       11.7008327704        2.7179623940
 H       -10.0548802176       10.7885259640        4.1699736040
 H       -10.9155837872       12.1003314698        3.4173470437
 H        -6.2832400338       10.2583529041       -1.1543093897
 H        -5.0000947911        9.1278223619       -1.1021191484
 H        -5.7674956258        9.8025562329        0.3930950432
 H        -7.6538716891        8.8450538355       -2.3255503538
 H        -8.2665214994        7.2239726764       -1.9805612456
 H        -6.5724340471        7.4438301062       -2.6619871203
 H        -5.3814502180        4.6397494214        3.4632361143
 H        -6.6622072495        5.0216179446        4.5982551926
 H        -6.5774204319        5.8540961136        3.0667473041
 H        -6.5515516633        2.2331022430        3.9171285597
 H        -5.7663443208        2.4204612281        2.3191629000
 H        -7.5018223893        1.7313516496        2.5482445262
 H       -13.2972588738        1.1778138399       -0.5725322083
 H       -12.3977166276        2.7351464147       -0.7167464212
 H       -14.0952099309        2.5637771412       -0.0623248795
 H       -13.6852252141        1.2081407142        3.1130755914
 H       -14.1440837548        0.3784726141        1.6774916836
 H       -14.6432727251        2.1385753788        2.0749657386
 H        -7.8941290667       -2.8108597845        0.6426730813
 H        -6.3972176762       -1.9853293946        0.9490560447
 H        -6.4728899395       -3.1043880241       -0.3040347311
 H        -6.4011132005        0.4731155012       -1.5906700974
 H        -5.7355227913       -1.1398414698       -2.0842853730
 H        -5.4811451078       -0.4033347261       -0.5195596095
 H       -11.8802232997       -2.7431645204       -4.9080071184
 H       -10.7600518552       -2.3833802557       -6.2090494906
 H       -12.4677072135       -2.4362789081       -6.4658898989
 H       -10.4320380365        0.3386823682       -6.6325732020
 H       -11.9163259981        1.2410418647       -6.5114292811
 H       -11.8370728826       -0.0082000163       -7.6030090700
 Na      -10.2060786484        5.7932602951        1.3431593467
