117

 C       -14.5165656119       -0.3117652116       -6.1663875456
 C       -13.4099867496       -0.4138179463       -4.9515642674
 O       -13.8023271422       -0.1518102410       -3.8233649879
 C       -11.8411037738       -0.7741577561       -5.2875602184
 C       -10.9676811516       -0.4144281365       -4.1075885373
 O       -11.3272804455        0.4935924573       -3.3731405218
 C        -9.6802777451       -1.1946909895       -3.9239727206
 C        -8.5854941049       -0.5341080120       -3.0543564495
 C        -8.0913206287       -1.5825151308       -1.9566307449
 O        -8.5028797466       -2.6973868224       -2.0407337224
 C        -7.3060178416       -1.1665503303       -0.6476109827
 C        -8.4388523573       -0.2296734848        0.1037420547
 O        -8.1444451154        0.8769331089        0.5299379142
 C        -9.8307415541       -0.8106083596        0.3660916757
 C       -10.9690309985        0.1544532747       -0.0957716612
 C       -11.7907718175        0.5139626039        1.2043170975
 O       -11.5773206204       -0.0332367953        2.2251118189
 C       -12.7870500108        1.8193107990        1.2374121975
 C       -11.8420601292        3.0535016722        1.7289238170
 O       -11.8087789458        4.1309761140        1.1353218506
 C       -11.1777139307        2.8581218194        3.1090884133
 C        -9.6385160453        2.5573832064        3.0833809119
 C        -8.8114892131        3.9144726987        3.1154321527
 O        -9.4249962166        4.9662479901        3.3850340694
 C        -7.2883909982        3.9267016161        2.7386781760
 C        -7.2961716072        4.4083540961        1.1695216118
 O        -8.2369816645        4.9151858709        0.6027752524
 C        -5.9443535766        4.2012133733        0.4107322300
 C        -5.6870483712        5.3563267507       -0.6688332950
 C        -5.9875625628        6.7402529311       -0.0445971095
 O        -5.6386358236        6.9164698365        1.1336473059
 C        -6.8233579072        7.9015464370       -0.7346569939
 C        -8.0790085830        8.0617425512        0.2569858795
 O        -9.0334283154        7.3466197240        0.0323707160
 C        -7.9484406260        8.8649511381        1.4640934153
 C        -8.7954622231        8.4445999398        2.6524233297
 C       -10.3630586904        8.7256617206        2.4057152360
 O       -11.1444224997        7.8108334382        2.4551047275
 C       -10.7956236202       10.2912926823        2.1859172425
 C       -10.7725654845       10.5210703948        0.6800053552
 O        -9.7007849117       10.6476854187        0.0787835073
 C       -12.0637051103       10.5511340614       -0.1210186847
 C       -12.1947951282       10.4333558961        2.8227331995
 C        -9.8759423620       11.2829561119        2.9171735406
 C        -6.0119514592        9.1990845066       -0.8104145103
 C        -7.3588066108        7.5611205798       -2.1848424909
 C        -6.5465440477        5.1056668820        3.4736551573
 C        -6.6023427277        2.5982174896        2.8553781277
 C       -13.4967872121        2.0696685219       -0.0752106293
 C       -13.8558683499        1.6124722046        2.3627298909
 C        -6.9599730463       -2.3339869269        0.3064128791
 C        -6.0454347800       -0.3665656994       -0.9162658154
 C       -11.6992999099       -2.2763559856       -5.6788918851
 C       -11.4338062804        0.0256234311       -6.5368353933
 H       -14.8802531183        0.7357860523       -6.1309471849
 H       -15.4763112900       -0.9534393310       -5.9653568245
 H       -14.3123216028       -0.6228503147       -7.1673844050
 H        -9.2023703314       -1.4602378025       -4.8829291758
 H       -10.0387600670       -2.1192521381       -3.4304993403
 H        -8.9138804955        0.4233829557       -2.5728778954
 H        -7.6818231092       -0.2577277020       -3.7635583118
 H        -9.8778354242       -1.0387284401        1.4591884529
 H        -9.7055231354       -1.7647307700       -0.1468211549
 H       -11.5593572919       -0.3517679682       -0.8044127763
 H       -10.5565888497        1.0815853123       -0.6631004602
 H       -11.6204970829        1.9870481691        3.5598954865
 H       -11.3696999283        3.6533135429        3.7683919591
 H        -9.3950095525        2.0034530243        2.1608590005
 H        -9.3576026308        1.8769020517        3.9077460817
 H        -5.9411232918        3.2774699843       -0.0910227888
 H        -5.0703949114        4.2326793108        1.0696921868
 H        -6.4172467108        5.0934356375       -1.4219790279
 H        -4.6615595133        5.3334491359       -0.9967701756
 H        -7.8432195630        9.9907768062        1.3331549239
 H        -6.9583746485        8.6478267046        1.8791025426
 H        -8.3735856928        8.8838078232        3.5457726657
 H        -8.8522097256        7.3664534411        2.7250836224
 H       -11.8383818966       10.6464142378       -1.1396167931
 H       -12.5952339775       11.4479398953        0.1977073121
 H       -12.6962131582        9.6552746857       -0.0150020109
 H       -12.8199075302        9.6971480195        2.3352890768
 H       -12.6220502804       11.4004476115        2.7204090117
 H       -12.1311538197       10.1790227907        3.8457904140
 H        -8.8565867328       11.0798409208        2.6844997088
 H        -9.8585064362       11.0635420795        3.9827843988
 H       -10.1510947199       12.3485043798        2.7898926997
 H        -6.6377931773       10.0625935679       -0.7703788724
 H        -5.3463324758        9.2406436172       -1.6740425581
 H        -5.3936496744        9.3138975861        0.0287451452
 H        -7.7520464959        8.4988569643       -2.5528196394
 H        -8.1032394174        6.8409501710       -2.0755806572
 H        -6.6126917853        7.3300394802       -2.8959461003
 H        -5.8748764029        5.6002584198        2.7969196177
 H        -5.8129934846        4.7063348630        4.1801978591
 H        -7.3241084095        5.7151251972        3.9582397953
 H        -7.1527322279        2.0632424219        3.5908179764
 H        -5.5753575646        2.7171336262        3.2031950533
 H        -6.6767734830        2.0336713573        1.9044554531
 H       -13.8663007615        1.1650925683       -0.3810113118
 H       -12.8430530675        2.4037498304       -0.8496290781
 H       -14.3036570849        2.7443717538        0.1100526589
 H       -13.5185564605        1.0504482840        3.2333811102
 H       -14.7530722530        1.0173203552        2.0331396888
 H       -14.2433599832        2.5802470680        2.6520659061
 H        -7.8116942474       -3.0243849162        0.3432342033
 H        -6.8951073529       -2.0003974271        1.3567760962
 H        -6.0951003841       -2.8861041904        0.0078031780
 H        -6.1254109556        0.4370029794       -1.5780017494
 H        -5.1812987904       -1.0403329818       -1.0670396546
 H        -5.7331036511        0.0405717228        0.0849960971
 H       -12.1076543914       -2.8892247197       -4.8879870487
 H       -10.6770985520       -2.6701591315       -5.8421671437
 H       -12.2910057744       -2.4770024363       -6.5757606166
 H       -10.4706920339       -0.3516048629       -6.9379858880
 H       -11.2831370771        1.0728455303       -6.4237343980
 H       -12.0501429904       -0.1061861976       -7.4312783688
 Na      -10.3832476756        5.7371530411        1.6120521964
