117

 C        -5.0328236935       12.7217703553        0.1608483658
 C        -5.4720827224       11.8527523498       -1.0259713398
 O        -6.5802745904       11.5500558030       -1.3279025433
 C        -4.3783836095       11.1608402414       -1.9099926279
 C        -3.4644404567       10.2666767410       -0.9684897139
 O        -2.3074295401       10.4666394839       -0.8566270999
 C        -4.0767048466        9.1369573514       -0.0920911016
 C        -5.5686840030        9.1577532309        0.3477432762
 C        -6.1143164517        7.8540691513        0.8770928852
 O        -6.5715352788        7.0579277326        0.0366066996
 C        -6.4527144229        7.5287583944        2.3737920943
 C        -8.1102352639        7.5196198243        2.6163223572
 O        -8.5812781615        8.2848539089        3.3877635847
 C        -8.8898452815        6.4333107072        1.8103685852
 C       -10.3665507441        6.4689942087        2.2655596070
 C       -11.1553201021        5.3858988252        1.5310592656
 O       -10.6382357807        4.2902499092        1.5883661071
 C       -12.3955434299        5.7142913721        0.5970707860
 C       -13.2059263682        4.3752957019        0.2988450341
 O       -12.7252888096        3.4504438865       -0.3225325061
 C       -14.6205264707        4.2864894644        0.8835750499
 C       -15.2088948838        2.8977964263        0.4527523737
 C       -14.5628149066        1.7571555701        1.2604863974
 O       -13.6707937431        2.0889029895        2.0547579643
 C       -14.9948664537        0.2816188322        1.2317568153
 C       -13.8594476546       -0.3636184998        0.2111525936
 O       -12.6567773626       -0.2722587188        0.4452558116
 C       -14.2641049195       -1.4658121669       -0.8738041086
 C       -13.2276365920       -2.5354207023       -1.1656162515
 C       -12.5170782779       -2.2151045611       -2.4659164649
 O       -12.9006726878       -1.3226397627       -3.1785715348
 C       -11.3150126077       -3.1493156809       -2.8610489792
 C        -9.9574950898       -2.2146788284       -2.7518699075
 O        -9.1429350117       -2.5282896065       -1.9138543598
 C        -9.7872554002       -0.8886680081       -3.5348411957
 C        -9.0911086829        0.2927393135       -2.7981551940
 C        -9.6101589581        0.6243576863       -1.3713538698
 O       -10.6131126231        1.1714971330       -1.1477743276
 C        -8.6552249619        0.2809143547       -0.0603222286
 C        -9.2882935510       -0.5427350772        1.0636992401
 O       -10.0882725554        0.0213108219        1.8628442222
 C        -8.7066671212       -1.8974868106        1.4608799158
 C        -7.3287680502       -0.4931221014       -0.4318910905
 C        -8.2678468808        1.6320051961        0.5407183437
 C       -10.9543469794       -4.2779374587       -1.8013732938
 C       -11.3173143466       -3.6294651378       -4.2743755176
 C       -14.7014964339       -0.3832556249        2.6764564139
 C       -16.4108110158        0.0487011750        0.7546082871
 C       -13.1303649940        6.7976259370        1.4752154047
 C       -11.9506168855        6.4687386911       -0.7009965462
 C        -5.9169992649        6.0772416584        2.7280220615
 C        -5.9679637072        8.5887072110        3.3269925956
 C        -5.0836514870       10.1336783386       -2.9102853616
 C        -3.5038863130       12.2568219043       -2.6072017627
 H        -4.1898926660       12.3617663460        0.7188131637
 H        -5.8841256351       12.7777267772        0.7675835468
 H        -4.7781194233       13.7340048536       -0.3052906493
 H        -3.3643075993        9.2093020465        0.7462047583
 H        -3.8363881146        8.3003686148       -0.6812942500
 H        -6.1676240750        9.3837192289       -0.4634610172
 H        -5.6680658185        9.9309306867        1.0687765179
 H        -8.5479294353        5.3945448608        2.1248555664
 H        -8.6621370005        6.4725704856        0.7378315727
 H       -10.7551287410        7.4835121411        2.1256412920
 H       -10.4317008552        6.2601475589        3.2831499766
 H       -15.3059135353        5.0371417823        0.5592378480
 H       -14.4363495652        4.2416514890        1.9427933953
 H       -15.0035435268        2.7004153284       -0.5459422437
 H       -16.3153037181        2.9607073890        0.5487444380
 H       -14.1851913059       -0.7832537961       -1.7338211568
 H       -15.2198318439       -1.9732473404       -0.7444521910
 H       -13.6936856695       -3.4776156650       -1.3484222203
 H       -12.6200681125       -2.7462531778       -0.3169139365
 H       -10.7933393880       -0.5620497956       -3.8052676415
 H        -9.3190446257       -1.0924347530       -4.4961002926
 H        -9.2246817579        1.1234764055       -3.5353574274
 H        -7.9772654406        0.2120520845       -2.7555501266
 H        -8.8049920438       -2.5933981467        0.6689322382
 H        -9.3475912963       -2.3013221744        2.3926711740
 H        -7.7300336825       -1.8429596525        1.8095384042
 H        -6.7777473104        0.0274262778       -1.2699507480
 H        -7.5147035536       -1.4650156393       -0.8067961483
 H        -6.7057656648       -0.6159236684        0.4347126529
 H        -9.0830457248        2.2405572801        0.7183476790
 H        -7.5792666208        2.0926599531       -0.0945737181
 H        -7.6934929517        1.6155820002        1.4818779172
 H       -11.8774403617       -4.6401799216       -1.3129994375
 H       -10.3299975906       -3.8529969648       -0.9542345298
 H       -10.4104988841       -5.0919133941       -2.2067349394
 H       -11.6824747157       -2.7963897631       -4.9659956736
 H       -12.0146505089       -4.4088102640       -4.4847729272
 H       -10.3628333740       -3.9270757481       -4.6701090465
 H       -15.3376563073       -0.0591925787        3.5087328648
 H       -13.6668900126       -0.1770654476        2.9475658039
 H       -14.9017153607       -1.4585974412        2.6651298665
 H       -17.0368210156        0.3415555490        1.6009950536
 H       -16.6006059435       -1.0261544639        0.6557748741
 H       -16.5581166824        0.6765512750       -0.0195090064
 H       -14.1567843877        6.7849983513        1.2575725914
 H       -12.9749199936        7.8546874815        1.3133977733
 H       -13.0522433355        6.5357116029        2.5937414548
 H       -11.3421701981        5.9172921003       -1.4055177879
 H       -11.3731254832        7.3469222475       -0.5744897087
 H       -12.9203385388        6.7569994796       -1.1559699242
 H        -4.8322076622        6.0169050709        2.7467188926
 H        -6.3527127083        5.2726859979        2.1510185124
 H        -6.3363007706        5.8744561980        3.6896209998
 H        -6.4415554398        9.5164232113        2.9833852864
 H        -4.9112514857        8.7310693345        3.2713263906
 H        -6.2148985646        8.3012957638        4.3592299668
 H        -5.4339703569        9.2862283573       -2.3716664376
 H        -4.2821939346        9.9761478089       -3.6284396550
 H        -5.8447526152       10.6427502866       -3.3638771436
 H        -3.9713320691       12.7130742807       -3.4426211311
 H        -2.4499280030       12.1080654380       -2.7503986457
 H        -3.5353784472       13.1021572486       -1.9300784552
 Na      -11.2713456201        1.9062550774        0.8579608119
