117

 C       -14.3582134703       -0.3535420622       -6.0507237552
 C       -13.3626152629       -0.3709119458       -4.9329474653
 O       -13.6598808133       -0.0890919012       -3.7771806221
 C       -11.7845433714       -0.7348014923       -5.2514899565
 C       -10.8610972476       -0.4633156255       -4.0412219210
 O       -11.1585947560        0.4010481699       -3.2136063729
 C        -9.6180808786       -1.2586769917       -3.9024643299
 C        -8.7231623370       -0.6321312773       -2.9374003400
 C        -8.2233618381       -1.5780371310       -1.8557811695
 O        -8.2124665904       -2.7984823746       -1.9652533350
 C        -7.5008547528       -1.0097311726       -0.5880732523
 C        -8.4178046264       -0.1172784545        0.2175868760
 O        -8.1049592214        0.9306353696        0.7265302211
 C        -9.9348181267       -0.6937825285        0.3580757088
 C       -11.0077983783        0.3298518954        0.1564251951
 C       -11.9401561410        0.5311157563        1.3623488796
 O       -11.8465612245       -0.0867152735        2.4159415939
 C       -12.8685036294        1.7842975393        1.2979272420
 C       -11.8584197802        2.9981881525        1.6661530636
 O       -11.5765891935        3.9147641690        0.9340337916
 C       -11.1691619150        2.7724522090        3.0830549218
 C        -9.6278219434        2.6232128327        2.8356818545
 C        -8.8278913822        3.8972916207        2.9980164529
 O        -9.3014924776        4.9633081251        3.3242082223
 C        -7.3375514171        3.8612547182        2.6555160181
 C        -7.1451259958        4.3776459422        1.1379464126
 O        -8.0800039861        4.9729625025        0.6472280710
 C        -5.8479731040        4.2283520701        0.3748822336
 C        -5.9007309917        5.2801234778       -0.7913869718
 C        -5.9585931127        6.6266117215       -0.1806492212
 O        -5.4223467785        6.9595948821        0.8405450934
 C        -6.9588335471        7.7071378511       -0.7502343667
 C        -8.1724459983        7.8629237576        0.1453209160
 O        -9.1789690875        7.1632970987       -0.0158376891
 C        -7.8775827707        8.6360649919        1.4653481977
 C        -8.9142534627        8.4285273541        2.6697781673
 C       -10.3817351963        8.8664725850        2.4537231411
 O       -11.2551512880        7.9914714635        2.3378765211
 C       -10.7354075758       10.3736627690        2.1492562490
 C       -10.6960011190       10.4953266361        0.6190804168
 O        -9.6650860058       10.7186222678        0.0822131406
 C       -11.9718362831       10.3923490201       -0.1290806501
 C       -12.1707240915       10.6841375574        2.6881786030
 C        -9.7251690206       11.2982844347        2.8943069240
 C        -6.0616845257        9.0135529699       -0.7809657416
 C        -7.3942075546        7.4544697209       -2.1940525146
 C        -6.6441973455        5.0096475929        3.5713578374
 C        -6.6886438323        2.5070051067        3.0232486886
 C       -13.4280278511        2.1318242365       -0.0971588437
 C       -13.9777630780        1.6093393062        2.3210541683
 C        -7.1116113528       -2.2992482793        0.2939159654
 C        -6.2021532892       -0.1834571638       -0.9346439732
 C       -12.0332396075       -2.2375196188       -5.5596106179
 C       -11.3276200977        0.0421756070       -6.5235574206
 H       -14.4882766203        0.6406359639       -6.4853560638
 H       -15.2829251405       -0.6479903604       -5.7575844112
 H       -14.0757636328       -1.0860482389       -6.8634738819
 H        -9.1490873213       -1.0516622126       -4.8977065779
 H        -9.8064141215       -2.3781169418       -3.7869830811
 H        -9.1399136733        0.2921386114       -2.5641109269
 H        -7.8233522176       -0.3741614455       -3.3550596678
 H        -9.9808284559       -1.0430915023        1.3883884501
 H        -9.9836322212       -1.6017733976       -0.2597351051
 H       -11.5973017946        0.0139092576       -0.7801281672
 H       -10.6857886746        1.2916179645       -0.0636200458
 H       -11.5392976107        1.9303250524        3.7054647127
 H       -11.3017715090        3.7165198558        3.7306164429
 H        -9.4189733592        2.2750424994        1.7836744609
 H        -9.1373202339        1.8619041528        3.4987306669
 H        -5.8313295733        3.2265217556       -0.1857032657
 H        -4.9578059722        4.3586247777        0.9909469904
 H        -6.8136564092        4.9554044587       -1.2388039105
 H        -5.0311153841        5.2124082913       -1.4484742228
 H        -7.8247893733        9.6745197382        1.2113068566
 H        -6.8947190595        8.4584128049        1.9593007687
 H        -8.6619109546        9.1669856607        3.4629502051
 H        -9.0064227939        7.4047552564        3.0994592617
 H       -11.6912856186       10.4371589162       -1.2321067638
 H       -12.5814105541       11.2401624034        0.0700028720
 H       -12.4649936790        9.4516730537       -0.0101453522
 H       -12.8069632136        9.8787812055        2.3413570923
 H       -12.5953984615       11.6440893737        2.3010866325
 H       -12.1198300920       10.5860382445        3.8086874506
 H        -8.8189455372       11.4787947413        2.2896802281
 H        -9.2254323924       10.8075775709        3.7277352344
 H       -10.1968730881       12.1849766298        3.2840547752
 H        -6.5757961975        9.8590259596       -1.2998125376
 H        -5.0905426134        8.8044317101       -1.1975911417
 H        -5.7166715651        9.4000425366        0.2302157465
 H        -7.8899723835        8.3147681118       -2.6271972465
 H        -8.0031555004        6.5061344008       -2.2559977389
 H        -6.4756088680        7.3409440827       -2.8465780337
 H        -5.6321011862        5.1892526307        3.2814952125
 H        -6.5299913677        4.5251282353        4.5146516667
 H        -7.3013984600        5.8210679726        3.6627971434
 H        -6.6715087099        2.3530403885        4.1300204872
 H        -5.6606383242        2.4261264279        2.5815260123
 H        -7.2612412448        1.7409205532        2.5094966549
 H       -13.7800277918        1.2128297316       -0.6859910483
 H       -12.6363728669        2.5793679100       -0.7334788441
 H       -14.1673365362        2.9253816833        0.1235917551
 H       -13.6191436912        1.2154861417        3.2645373024
 H       -14.6932159870        0.9204537929        2.0117021764
 H       -14.6345545622        2.5328759721        2.4379285114
 H        -7.8817350220       -2.7861077147        0.8360364214
 H        -6.4597087427       -1.8930749397        1.0463034047
 H        -6.6360050644       -3.0580866239       -0.3282871637
 H        -6.5201688252        0.6771972394       -1.5959553811
 H        -5.4247854568       -0.7579250752       -1.4592919683
 H        -5.7551155556        0.1829955031       -0.0514208326
 H       -12.2928977291       -2.7959787077       -4.6594412691
 H       -11.2137642742       -2.7656310197       -5.9607897538
 H       -12.8312306709       -2.3304044614       -6.2634972461
 H       -10.3118161094        0.1736073328       -6.8148905276
 H       -11.6635084992        1.1025046808       -6.4123544988
 H       -11.7602614922       -0.3076724688       -7.4324641497
 Na      -10.3202161663        6.0831668125        1.5103574214
