117

 C       -14.2988072776        0.0669024555       -5.9456891982
 C       -13.3135756123       -0.2573449588       -4.7049775658
 O       -13.6099355369       -0.1210584017       -3.5278820243
 C       -11.8419535585       -0.8150589646       -5.0802104857
 C       -10.8768038655       -0.4717576755       -3.8698849826
 O       -11.1207388948        0.4354119936       -3.0900431536
 C        -9.5725080166       -1.2499728923       -3.7988059520
 C        -8.5489239921       -0.6683535449       -2.9328579613
 C        -8.0590008717       -1.6894516259       -1.6971525816
 O        -8.1209097695       -2.8691757415       -1.8354606082
 C        -7.3931096092       -1.0764514259       -0.4287604347
 C        -8.4852695860       -0.1011657890        0.2578469040
 O        -8.2686337686        1.0283524341        0.5444939754
 C        -9.9932287375       -0.7402068614        0.4948589586
 C       -11.1012309477        0.2636066369        0.1805653900
 C       -12.1676638641        0.5353459102        1.3421450440
 O       -12.3284714043       -0.1778492792        2.2592205709
 C       -12.8361792489        1.9428112532        1.1966833118
 C       -11.8490128245        3.1081967712        1.6724837929
 O       -11.7849355939        4.0991840660        1.0314542542
 C       -11.1578102613        2.9783823819        3.1145293283
 C        -9.6318232660        2.6739135805        3.2693738329
 C        -8.7860773416        3.9517104718        3.2797959319
 O        -9.2320643773        5.0550114032        3.5587398686
 C        -7.2966230989        3.8545242171        2.7975208745
 C        -7.3095916383        4.3157014785        1.2403235791
 O        -8.3031850452        4.8476318063        0.7796216786
 C        -6.0388121014        4.0771652285        0.4618106977
 C        -6.0131279341        5.1586886792       -0.7074323917
 C        -6.0012601812        6.6246398837       -0.3148668496
 O        -5.1504507097        6.9590063297        0.4803554050
 C        -7.0311950043        7.6079857387       -0.8961921171
 C        -8.2240560652        7.7849363674        0.1742933115
 O        -9.3249384154        7.3889957131       -0.0914744660
 C        -7.8499554370        8.4691091207        1.4128660611
 C        -8.8271674047        8.3274374238        2.5765886683
 C       -10.2715269219        8.8004647578        2.1318418797
 O       -11.1100795457        7.9935645475        1.7564576575
 C       -10.6000014119       10.4059125531        2.0159680194
 C       -10.5510107795       10.6057603733        0.5046512088
 O        -9.5709270857       11.0746031029       -0.0525695127
 C       -11.7494749149       10.1556613880       -0.3098738967
 C       -12.0081230353       10.8034009698        2.5536570640
 C        -9.5252823084       11.1282191905        2.7468848805
 C        -6.2372636539        8.9136593746       -1.0813413164
 C        -7.5837456430        7.1032648612       -2.2064196554
 C        -6.4305664176        4.8700840220        3.5617498846
 C        -6.7167580652        2.4232930829        2.9606076261
 C       -13.4519096061        2.3857743372       -0.2066447643
 C       -13.9828546568        2.0162588414        2.2992250413
 C        -6.9487154776       -2.2209730759        0.4421695787
 C        -6.2192549684       -0.1286048213       -0.8232447738
 C       -11.9536877965       -2.3674204756       -5.3137404423
 C       -11.3158026579       -0.0756950301       -6.4137196241
 H       -13.9201416694        0.8740392505       -6.6146641799
 H       -15.2846623297        0.3759481509       -5.6046304015
 H       -14.2810935641       -0.8280185178       -6.6497768178
 H        -9.1076164529       -1.4940112994       -4.8241083611
 H        -9.8727159611       -2.3447187059       -3.4612990750
 H        -8.8775646639        0.2645658275       -2.3812880361
 H        -7.7233728596       -0.3219563792       -3.4770800005
 H       -10.0111182790       -1.1801883882        1.5146701090
 H       -10.1272842490       -1.6101643010       -0.1992955817
 H       -11.7943994101       -0.1618976131       -0.6452951966
 H       -10.8259990547        1.1969635823       -0.1773390468
 H       -11.6108497840        2.2033016007        3.6898966958
 H       -11.3346597220        3.9745331676        3.5959717654
 H        -9.2669234378        1.9102858439        2.5223062691
 H        -9.4651073581        2.3541330634        4.3346277725
 H        -6.1904236353        3.0191235662        0.0785981499
 H        -5.0738773976        4.2008576396        0.9186791520
 H        -6.7577166402        4.8772963564       -1.3931564044
 H        -5.0731337660        5.0048730033       -1.2275650495
 H        -7.6019676029        9.4845970272        1.2321849833
 H        -6.8504832290        8.0421704395        1.7087499020
 H        -8.6646703180        8.9919901068        3.4358464672
 H        -9.0068366954        7.3012674915        3.0451209206
 H       -11.5040946175       10.1132167704       -1.3922967247
 H       -12.4688126988       10.8923575395       -0.2341937462
 H       -12.1012811644        9.1752410781       -0.0019022918
 H       -12.7395782032       10.2784016716        2.0427795003
 H       -12.1771771774       11.8570359052        2.4070048388
 H       -12.0225210346       10.5408049483        3.6028754948
 H        -8.4956538501       10.7269768890        2.6603021056
 H        -9.7516046675       11.1832431995        3.8106676233
 H        -9.3974039462       12.1801211071        2.4341295808
 H        -6.8979443893        9.7718044461       -1.0627009417
 H        -5.8580114940        8.9544117755       -2.0684359267
 H        -5.3762954879        9.0247530976       -0.4214862801
 H        -8.1369925602        7.8865077330       -2.6286577724
 H        -8.2918676585        6.3111180270       -2.1508049983
 H        -6.7608255363        6.7730466718       -2.8427942432
 H        -5.6696810390        4.3348347969        4.1128436317
 H        -7.1612984322        5.3172096181        4.2296570986
 H        -5.9617499149        5.6434473089        2.9518022391
 H        -7.0683235591        1.8508480928        3.7920196434
 H        -5.5915063055        2.4623934186        3.0292881167
 H        -6.7796004837        1.8656236001        2.0435736857
 H       -14.0692292321        1.5869426857       -0.5219050789
 H       -12.6864719578        2.6165645575       -0.9494543528
 H       -13.9859514298        3.2951580597       -0.0613020166
 H       -13.5692850796        1.9872253989        3.2962099567
 H       -14.6818319403        1.2740050973        2.1782731679
 H       -14.7155204432        2.8919048141        2.1708241215
 H        -7.7732458831       -2.8870773232        0.5999692557
 H        -6.5688641468       -1.7967865341        1.3785026765
 H        -6.2057786479       -2.8351097476       -0.0593178209
 H        -6.6115755725        0.6294163700       -1.5060487117
 H        -5.4828394948       -0.6425538492       -1.5019715369
 H        -5.8786629235        0.3345365075        0.0394198453
 H       -12.3268274605       -2.8718177649       -4.3906305385
 H       -11.0526870962       -2.8556801914       -5.6514796738
 H       -12.7155316955       -2.5464015806       -6.0731557652
 H       -10.3945598489       -0.5023061499       -6.8147948097
 H       -11.0909662088        1.0251854925       -6.4659414528
 H       -12.0367902942       -0.2393812287       -7.1848476966
 Na      -10.4160826930        5.8844199021        1.3209545792
