117

 C       -14.2523472436        0.2427876647       -5.7601205437
 C       -13.3059507038       -0.1405758466       -4.6037017854
 O       -13.5779190343       -0.3188995992       -3.4129534752
 C       -11.8388350024       -0.7742097156       -5.0092914528
 C       -10.7935145586       -0.5005318158       -3.8016477376
 O       -10.9438289771        0.4627734405       -3.0372571452
 C        -9.5711210043       -1.4297037349       -3.6812101320
 C        -8.5591933466       -0.6114936838       -2.8575523842
 C        -8.0552093534       -1.6006570892       -1.7968464348
 O        -8.2948391783       -2.8078525507       -1.7312091085
 C        -7.4550916912       -1.0035766912       -0.4248684355
 C        -8.6127492507       -0.1386707553        0.2292612690
 O        -8.3665709865        1.0837700631        0.4447283570
 C        -9.9859890695       -0.6986023868        0.5349842447
 C       -11.1378963311        0.1961769837        0.0363471430
 C       -12.0710650478        0.5898068288        1.2004395250
 O       -12.3267737377       -0.2437604024        2.0582507900
 C       -12.8485205804        2.0517309862        1.2591749461
 C       -11.9180493032        3.2261278958        1.8289595497
 O       -11.6320009607        4.2166530127        1.1038127637
 C       -11.3692018543        3.0564423789        3.2631449137
 C        -9.8129614894        2.7668140271        3.2166901304
 C        -8.8732041898        4.0310767623        3.2853112432
 O        -9.3591066919        5.0985725505        3.6096882170
 C        -7.4384845273        3.8742998690        2.8308984886
 C        -7.3635559024        4.3112879047        1.2796522119
 O        -8.2721340971        4.8198698122        0.6830693289
 C        -6.0734081097        4.1700327329        0.4643466959
 C        -6.0379147533        5.0948751204       -0.7562909189
 C        -6.0077665958        6.5092300558       -0.4218942139
 O        -5.3423115004        6.8819086819        0.5354559807
 C        -6.9940661169        7.5532055251       -1.0923627011
 C        -8.0560652491        7.7545655759        0.0364472026
 O        -9.1736660869        7.2162684280       -0.1270190207
 C        -7.7661060429        8.4715327156        1.3611177690
 C        -8.7884793468        8.2049757830        2.4442654012
 C       -10.1911244761        8.7208546913        2.0451263079
 O       -11.1820268577        8.0018468881        1.9341672842
 C       -10.4132748711       10.2828820491        1.8411359751
 C       -10.3910605189       10.6334449658        0.3092934972
 O        -9.4920273444       11.2677317749       -0.1510840009
 C       -11.5536744438       10.2052495159       -0.5186938549
 C       -11.8607115304       10.4662159913        2.4376586274
 C        -9.4568445441       11.2146977123        2.6736763545
 C        -6.3362195967        8.9446972503       -1.3344810372
 C        -7.7423672936        7.0819945349       -2.3600880432
 C        -6.4985414042        4.9021082650        3.5971692328
 C        -6.9221200710        2.4534945455        2.9142652402
 C       -13.2950697961        2.3110601419       -0.1410657940
 C       -13.9887276324        1.9445416580        2.2433675946
 C        -7.0935038303       -2.1549803183        0.6031234121
 C        -6.1486407417       -0.1466238966       -0.6477503959
 C       -12.1591568517       -2.2825850868       -5.1557918500
 C       -11.1774007273       -0.2298439556       -6.2684547204
 H       -13.9168117071        1.1458796306       -6.2412656447
 H       -15.2126398301        0.3723356301       -5.4157550147
 H       -14.0617271735       -0.4401568261       -6.5577292655
 H        -9.2125599635       -1.6806553677       -4.6291261593
 H        -9.7784955614       -2.3435936243       -3.2535422090
 H        -8.8970359448        0.1764264945       -2.2734038184
 H        -7.6527971252       -0.1911047276       -3.3655820257
 H       -10.0413026081       -0.9027421808        1.6053090247
 H       -10.0381505952       -1.6677582022        0.0562735382
 H       -11.8400117351       -0.2049102903       -0.6225032723
 H       -10.8670222042        1.2233489003       -0.3665841959
 H       -11.8593110283        2.1530863020        3.7821588456
 H       -11.5439816374        3.9874312523        3.8271831843
 H        -9.6395784814        2.3871943297        2.2183015408
 H        -9.4640032796        2.0819487404        3.9894902381
 H        -6.0243481976        3.1684041620        0.0585734646
 H        -5.1556761985        4.3646670581        1.0801987728
 H        -6.9353942099        4.7280448070       -1.3481891324
 H        -5.2214926147        4.8010620833       -1.4567219039
 H        -7.8294216553        9.5907203293        1.2236297772
 H        -6.7921403911        8.3758297596        1.7731262943
 H        -8.4604297655        8.7398185799        3.3592602170
 H        -9.0514633994        7.2810038507        2.7975694469
 H       -11.1987464863       10.2996400022       -1.5402811048
 H       -12.4018672610       10.9747927102       -0.4368416128
 H       -11.8904894886        9.2030030986       -0.3207551964
 H       -12.5545271290        9.7011709988        1.9612291628
 H       -12.2380011896       11.4916007071        2.2330381850
 H       -11.7650351255       10.3212642219        3.5252086877
 H        -8.5833858395       11.5224711926        2.0945275762
 H        -9.1297199600       10.7311082836        3.6146174333
 H        -9.8268532564       12.1742549929        2.9680017807
 H        -7.1124276889        9.6117250199       -1.7726865964
 H        -5.5792956384        8.9704337180       -2.1805865285
 H        -5.8767037872        9.4148378375       -0.4372914324
 H        -8.4162883980        7.9349029573       -2.6377350082
 H        -8.5153305758        6.2654869801       -2.2483447282
 H        -7.0834656167        6.7204010671       -3.1511538449
 H        -6.2747374632        4.4887785698        4.5724739406
 H        -6.9144472989        5.8820701300        3.6158171108
 H        -5.5293829260        4.8364579766        3.1612301484
 H        -7.0041500335        2.1840647791        4.0237789183
 H        -5.9208500988        2.2731931775        2.6438235800
 H        -7.4996232334        1.6929055399        2.3271745923
 H       -14.0505734903        1.5006187690       -0.4729064594
 H       -12.3679317691        2.3507557758       -0.7331893050
 H       -13.7331889194        3.3468377597       -0.2528031131
 H       -13.7501324120        1.4016448876        3.1628817794
 H       -14.9022997338        1.5434009112        1.7220272887
 H       -14.3577949288        2.8657935474        2.5849101640
 H        -7.7261433432       -3.0368073732        0.4361624814
 H        -7.1951358435       -1.7516555211        1.5739656646
 H        -6.0476421153       -2.4308028285        0.4827798792
 H        -6.1008062989        0.5065221478       -1.5209875956
 H        -5.3732515847       -0.8133583489       -0.7864532637
 H        -6.0995048206        0.4805086536        0.2879780612
 H       -12.5405098435       -2.7470693633       -4.2900034020
 H       -11.2864083567       -2.7855523615       -5.5657176388
 H       -12.9179437462       -2.4201790289       -5.9127562779
 H       -10.1037347782       -0.3180413023       -6.4184455049
 H       -11.3428686434        0.8106263909       -6.2533664178
 H       -11.6726085852       -0.4767347851       -7.2321784923
 Na      -10.2336911178        5.8698349572        1.5573578312
