117

 C       -14.1282511456        0.3575876783       -5.5900573498
 C       -13.2759621839       -0.2631087225       -4.5825651609
 O       -13.6383412444       -0.2507134752       -3.4218517771
 C       -11.8594046427       -0.8083824875       -4.9058895572
 C       -10.8405704249       -0.4586285701       -3.7765033157
 O       -10.9838713786        0.5207388334       -3.0567504926
 C        -9.6005480937       -1.3125420900       -3.7386514727
 C        -8.4826596941       -0.7459483042       -2.8489682890
 C        -8.0539804002       -1.6770254788       -1.6516790859
 O        -8.3241685846       -2.8263469155       -1.7074999296
 C        -7.4305080907       -1.0020422786       -0.3020576257
 C        -8.6471146775       -0.0788572153        0.1574464917
 O        -8.4571809883        1.0878185726        0.4069272889
 C       -10.0224443185       -0.7101329580        0.5184388601
 C       -11.0338565551        0.3366995863        0.0643039758
 C       -12.0415141553        0.6023445390        1.2160518036
 O       -12.2628640278       -0.1998780467        2.0382863066
 C       -12.7850194468        2.0407405156        1.2412140655
 C       -11.9067842330        3.1778754900        1.8654031192
 O       -11.5729687867        4.0894690192        1.1817607775
 C       -11.4141578311        3.1138261863        3.2955123859
 C        -9.9138436267        2.7820050914        3.0748814736
 C        -8.9499747359        4.0596044328        3.2142267965
 O        -9.3655864954        5.1061145669        3.6258053069
 C        -7.4654128497        3.8577912376        2.7775457775
 C        -7.3804802059        4.3915039172        1.2532134749
 O        -8.3762726030        4.7866948975        0.7031610932
 C        -6.0340363271        4.1461025121        0.4584589836
 C        -6.0546461308        4.9802252522       -0.8387161322
 C        -6.0143404713        6.5387003526       -0.4630676388
 O        -5.4138633610        6.8525919900        0.5337862844
 C        -7.0268947006        7.5721183214       -1.1100095077
 C        -8.1001892926        7.7023428046        0.0063320792
 O        -9.2072870635        7.1594855127       -0.1182852893
 C        -7.6961212946        8.5103169465        1.2185017721
 C        -8.7127249614        8.2908101607        2.2865663376
 C       -10.1461728416        8.7519804390        2.0558150900
 O       -11.0631586689        7.9286772321        2.0198954881
 C       -10.4695133685       10.2633354975        1.8565769192
 C       -10.3644402105       10.6860144407        0.2733738844
 O        -9.3623688478       11.2881613634       -0.0868392705
 C       -11.4695226609       10.1882129686       -0.6505138650
 C       -11.9094478717       10.4886548516        2.4441179839
 C        -9.4728179957       11.1714203820        2.5341401504
 C        -6.3221735831        8.9207572478       -1.4429104449
 C        -7.6587167964        7.0748906619       -2.4353140329
 C        -6.6304716662        4.8610388028        3.6289304308
 C        -6.8758268753        2.4582082982        2.9540336350
 C       -13.2337475785        2.3755387788       -0.2724484020
 C       -14.0053267600        1.8090919673        2.2244361708
 C        -7.2555092293       -2.0395490562        0.7525037293
 C        -6.2059406410       -0.1418551947       -0.5839372932
 C       -12.0723936603       -2.3704423471       -5.0826667507
 C       -11.2657703001       -0.2135288049       -6.2143412844
 H       -13.6720704289        1.3197098263       -5.8188617930
 H       -15.0371079906        0.5473711032       -5.1172612872
 H       -14.0977279259       -0.0917203771       -6.5921004777
 H        -9.2678219638       -1.4242568246       -4.7264053413
 H        -9.8645894376       -2.2893058955       -3.4583882364
 H        -8.6383898059        0.2900720582       -2.4474185545
 H        -7.5025550697       -0.6962866990       -3.3217049066
 H       -10.0088297191       -0.7835574295        1.6145134796
 H       -10.2556031227       -1.6919440526        0.1542527570
 H       -11.8084582977        0.0230226599       -0.6939041743
 H       -10.7047211591        1.2880174466       -0.2476789815
 H       -11.8223874660        2.3885335548        3.9855833279
 H       -11.4102505859        4.1042837876        3.7120633761
 H        -9.7468851278        2.3282265250        2.1044678280
 H        -9.5880017973        2.1598316462        3.8645769581
 H        -5.7550198041        3.1212148716        0.2284437382
 H        -5.3009308761        4.5956778912        1.0760242200
 H        -6.8386518355        4.5009773230       -1.4351640241
 H        -5.1818771101        4.7469705968       -1.4711607634
 H        -7.5738423846        9.5627718307        0.9826775294
 H        -6.7152875768        8.2614998930        1.7144163385
 H        -8.3393825046        8.7817179918        3.1927000966
 H        -8.9358560477        7.2753389111        2.6404883083
 H       -11.1573441149       10.2848960430       -1.7520207610
 H       -12.3619433486       10.8018718984       -0.5306736626
 H       -11.7122102510        9.1691273792       -0.4098771851
 H       -12.5306259679        9.7158710172        2.0240013276
 H       -12.2908671729       11.4920043687        2.1363508064
 H       -11.8730931221       10.4478531986        3.5580684037
 H        -8.8001383012       11.5568163195        1.7690200745
 H        -8.8979212664       10.7181323582        3.3221740006
 H        -9.8156734453       12.0696931313        2.9442396405
 H        -6.9160702089        9.6267576869       -2.0380509277
 H        -5.5269800996        8.6925323153       -2.1342113616
 H        -5.8669252242        9.4290814864       -0.5602260600
 H        -8.3874933763        7.8024823200       -2.7437949445
 H        -8.2910067160        6.1474073958       -2.3433191713
 H        -6.9191670060        6.8027946911       -3.2187629237
 H        -6.8445728490        4.7298400750        4.7059760975
 H        -6.7697722738        5.8886534062        3.2784718512
 H        -5.6010638578        4.5072146962        3.6305392650
 H        -6.7106417764        2.3851691909        4.0502244912
 H        -5.8970931329        2.2623942409        2.5215367556
 H        -7.4974990974        1.6250613967        2.6686997040
 H       -13.9493004617        1.5731129823       -0.5518252348
 H       -12.3659732679        2.4679539077       -0.9251109511
 H       -13.7523669544        3.3238355663       -0.3023205719
 H       -13.8625784928        1.1048118932        3.0453350016
 H       -14.8459357126        1.5755891950        1.6480098782
 H       -14.3044297982        2.7749401161        2.7681826237
 H        -7.9865412197       -2.8428044986        0.6067795337
 H        -7.3044020292       -1.5692168680        1.7275209381
 H        -6.2075519646       -2.4167899483        0.6274612344
 H        -6.5194850927        0.5440628912       -1.4327354429
 H        -5.3592210224       -0.7347448592       -0.9446298622
 H        -6.0500498585        0.4865709124        0.2483113646
 H       -12.5798952568       -2.8849277580       -4.2618551557
 H       -11.1706643326       -2.8487095434       -5.4094068767
 H       -12.7405025458       -2.4790744104       -5.9342848453
 H       -10.2376527741       -0.4846633038       -6.3327775107
 H       -11.2587820366        0.9025832262       -6.2201836264
 H       -11.7574478250       -0.4358399627       -7.1505628220
 Na      -10.2423308646        5.8657536268        1.6781984197
