117

 C       -14.0766143163        0.5749363565       -5.5990135506
 C       -13.2914556136       -0.1877763107       -4.4132516467
 O       -13.7025296486       -0.2756174941       -3.3003791063
 C       -11.8434922812       -0.8468351424       -4.8660987053
 C       -10.8261566377       -0.4412836681       -3.7648529280
 O       -11.0569289754        0.5250107214       -3.1187439163
 C        -9.4660377608       -1.2642000739       -3.7003193542
 C        -8.2959100143       -0.8222101634       -2.8584292685
 C        -8.1138249159       -1.7334870382       -1.5694592950
 O        -8.3231977644       -2.9224472216       -1.6171134513
 C        -7.5931334034       -0.9795593692       -0.2841618829
 C        -8.6357353717        0.0090407777        0.2744343804
 O        -8.4419470925        1.1830810026        0.3702870225
 C        -9.9925189956       -0.6296234246        0.4080775942
 C       -11.0007647577        0.4424369678        0.0538713500
 C       -12.0885996223        0.6560375270        1.2256737461
 O       -12.1688711467       -0.1523683981        2.1455882764
 C       -12.8511457050        1.9958648147        1.2488465700
 C       -11.9247873267        3.1142157593        1.8094848358
 O       -11.6277200141        4.0186884610        1.0419905019
 C       -11.3619115879        3.0742049704        3.2017490489
 C        -9.8598723077        2.7522621377        3.1342018741
 C        -8.9565681984        3.9530784976        3.1798889894
 O        -9.3668797723        5.0299862921        3.6457085977
 C        -7.4515849986        3.8476229143        2.7662459769
 C        -7.3909161814        4.2481595234        1.2431441119
 O        -8.3627360683        4.7557739236        0.6853665635
 C        -6.1033419604        4.1562671205        0.5063876963
 C        -6.0832273653        5.0136163941       -0.8327977837
 C        -6.1272899133        6.4711276087       -0.4486924546
 O        -5.4053397769        6.8669323526        0.4442231324
 C        -7.0125666343        7.5134434891       -1.2329463802
 C        -8.1683380587        7.7636443880       -0.1257819237
 O        -9.1770012379        7.1397362759       -0.1638730646
 C        -7.7394276101        8.6125793585        1.0595758713
 C        -8.6048785537        8.3957414242        2.3716333210
 C       -10.0837455361        8.7993045478        2.0456336705
 O       -10.9727293714        7.9504610977        2.0570828210
 C       -10.4513392285       10.2957671343        1.8351875620
 C       -10.3389799378       10.5892360206        0.3050586074
 O        -9.3701687993       11.2091650659       -0.1059145713
 C       -11.3928110720       10.1655500872       -0.7373065263
 C       -11.9437082466       10.5918273780        2.3413747992
 C        -9.4591715675       11.1965380636        2.6304924306
 C        -6.2321984502        8.7975343841       -1.4732957589
 C        -7.5996637837        6.9851157938       -2.5499079740
 C        -6.6883800230        4.9154066301        3.6391967606
 C        -6.8916637568        2.4775756065        2.9806413803
 C       -13.1908011790        2.4526197790       -0.1478605675
 C       -14.1089714491        1.7799587974        2.0983948771
 C        -7.3395138304       -2.0510334063        0.8857908745
 C        -6.3329774856       -0.1513237171       -0.6075295818
 C       -11.9098698340       -2.4168699070       -5.0311516367
 C       -11.4067556002       -0.2050743182       -6.1626644830
 H       -13.7257925637        1.5405737095       -5.9475853404
 H       -15.1689400311        0.6816143358       -5.1731752953
 H       -13.9779491435       -0.0207398458       -6.4920944585
 H        -9.1603863041       -1.5028005627       -4.7613926498
 H        -9.8267320284       -2.2778725062       -3.3165545596
 H        -8.5804593567        0.2013598416       -2.3918545411
 H        -7.3120821279       -0.7055436427       -3.2630136996
 H       -10.1743917547       -1.0669203041        1.3988808055
 H       -10.1134050499       -1.4709662106       -0.2968230308
 H       -11.6228039756        0.2437169943       -0.8697782412
 H       -10.6562372719        1.4193611584       -0.0652883523
 H       -11.7294614895        2.3024056845        3.7692903244
 H       -11.4564409656        4.0142713048        3.7198619872
 H        -9.5734225790        2.2559962649        2.2005386970
 H        -9.5793330595        2.1625719861        4.0148074636
 H        -5.8465190319        3.1423532365        0.1807675397
 H        -5.3631828166        4.5159931532        1.1934719864
 H        -6.7801282189        4.5460458872       -1.4601063701
 H        -5.1759580742        4.8322342718       -1.3879639076
 H        -7.5683851234        9.6332110655        0.7620778390
 H        -6.6987473696        8.2784499436        1.3837543863
 H        -8.2368988112        8.9398426024        3.2489381807
 H        -8.7100383196        7.2982799173        2.7492727059
 H       -11.0997118693       10.3889348422       -1.7533266107
 H       -12.2735372277       10.7082432458       -0.5257391802
 H       -11.6701451951        9.0805166495       -0.6162750833
 H       -12.5814321467        9.8796323559        1.8827726948
 H       -12.2133975614       11.5908339263        2.0494222526
 H       -11.9867791957       10.5414518967        3.4276941423
 H        -8.6635846200       11.5354781050        2.0064222987
 H        -9.1124482017       10.7897603711        3.5339661568
 H        -9.8944897465       12.1686475899        2.8902651318
 H        -6.7890064546        9.6181807849       -1.8819344945
 H        -5.4349369051        8.6624407539       -2.1751351710
 H        -5.8330742172        9.0566832573       -0.5158851298
 H        -8.3412631050        7.6335287663       -2.9873072152
 H        -8.1165386252        6.0813713106       -2.3775491567
 H        -6.8395379957        6.6901923198       -3.2967191475
 H        -7.1893797740        4.9749496816        4.6062230335
 H        -6.6729247109        5.9130071075        3.1324520013
 H        -5.7076252183        4.5187455934        3.9867666417
 H        -6.7152725714        2.1768542666        3.9578237087
 H        -5.8756873917        2.3930840238        2.4851948281
 H        -7.5117301909        1.7270288192        2.5161365537
 H       -13.7738578375        1.7562712378       -0.5983055046
 H       -12.3132553403        2.7462030596       -0.6941622276
 H       -13.8091607830        3.3022377023       -0.0047239951
 H       -13.9453676349        1.0681193487        2.9025495301
 H       -14.9556798831        1.4488801190        1.4945176492
 H       -14.3839485892        2.7074308239        2.6750292243
 H        -8.1930292482       -2.7379786182        0.9732917719
 H        -7.1259416258       -1.4781214013        1.8417010960
 H        -6.4046811737       -2.5489982088        0.6311781464
 H        -6.5526466057        0.6743169472       -1.2812599875
 H        -5.5639057636       -0.8523896688       -1.0942155928
 H        -6.0408803263        0.2843941764        0.3153768529
 H       -12.3873854927       -2.7950944989       -4.0994004848
 H       -10.9410538207       -2.8765649550       -5.2211438450
 H       -12.5690445932       -2.7286242924       -5.8505488657
 H       -10.4759159966       -0.7126194505       -6.4268347821
 H       -11.2018816164        0.8887410795       -6.2024612551
 H       -12.0550868559       -0.3545866067       -6.9874861465
 Na      -10.3099117095        5.8826585893        1.7288989925
