117

 C        -5.3199433681       12.7851964964       -0.0108201882
 C        -5.6337685759       11.7946490285       -1.1593593932
 O        -6.8183223999       11.5399914151       -1.2988127531
 C        -4.4378853163       11.1346484161       -1.9586453138
 C        -3.5080229042       10.2840364886       -0.9266679488
 O        -2.3549169906       10.6146961462       -0.8724755789
 C        -4.1473256839        9.0675317393       -0.1510665774
 C        -5.5782450794        9.2097489896        0.2269926480
 C        -6.1840031318        7.8146973248        0.7159181831
 O        -6.3603018726        6.9518932890       -0.1066310877
 C        -6.4987822340        7.6047086459        2.3501591245
 C        -8.0043389756        7.5755758399        2.5111282565
 O        -8.5871387965        8.3047474237        3.3156703009
 C        -8.8776252380        6.5518755043        1.8009444940
 C       -10.3394337921        6.4724214797        2.2942770511
 C       -11.0460724908        5.3541202549        1.4205562712
 O       -10.6805121104        4.1994952845        1.5167132591
 C       -12.4206730583        5.7669977895        0.6309027805
 C       -13.1519559553        4.4628187409        0.3842249352
 O       -12.5729746579        3.6965236194       -0.4146507481
 C       -14.5695786608        4.2608273772        0.8320184519
 C       -15.1640181308        2.8951284915        0.5423766962
 C       -14.4741564354        1.8212004245        1.3895249943
 O       -13.6624191778        2.1740893666        2.2037267564
 C       -14.9886310419        0.2131844344        1.3275310269
 C       -13.9950385238       -0.5988123299        0.3895811170
 O       -12.8705099359       -0.2633794360        0.5025018330
 C       -14.3808274158       -1.5370064629       -0.7907893222
 C       -13.1821992006       -2.4684176476       -1.0725917123
 C       -12.4295167055       -2.2843350130       -2.4016343385
 O       -12.7651024480       -1.4228882802       -3.1970517340
 C       -11.1660736526       -3.0443937137       -2.7698911008
 C        -9.8964260910       -2.2199968306       -2.6377269841
 O        -8.9625440064       -2.5536830655       -1.9246842595
 C        -9.8886361875       -0.9639967360       -3.5551874763
 C        -9.0733505624        0.1370722712       -2.8100741826
 C        -9.4982792117        0.4513553561       -1.2957578865
 O       -10.5314066945        1.0446116999       -1.1855270301
 C        -8.4778775857        0.2941209139       -0.0458781404
 C        -9.2700482513       -0.5068939527        1.1516002602
 O       -10.1697266982        0.0574157752        1.7924040094
 C        -8.7689668902       -1.9316439739        1.4152836951
 C        -7.1918935391       -0.4556610013       -0.5077073753
 C        -8.1234863833        1.6041422128        0.6296280202
 C       -10.9978877410       -4.2493864906       -1.7117864913
 C       -11.3662667085       -3.5928598527       -4.2036963358
 C       -14.6889769673       -0.2547286557        2.7406376227
 C       -16.4535352145        0.1437438079        0.9170088122
 C       -13.3192602034        6.7548858214        1.3706809373
 C       -11.8947721071        6.2859418210       -0.7666659594
 C        -5.9543347080        6.1405365923        2.6986299376
 C        -5.7745289437        8.4270348643        3.4464400879
 C        -5.0465039494       10.1565062248       -3.0846954453
 C        -3.5663210232       12.1688904594       -2.5909243122
 H        -4.9645337440       12.1853952691        0.8435847809
 H        -6.3413306625       13.2313997066        0.2619721536
 H        -4.6232919215       13.5549309413       -0.2484719412
 H        -3.5226333298        8.8948049020        0.6307737820
 H        -4.0634917844        8.2100542921       -0.8786217651
 H        -6.1867730013        9.4580085826       -0.6637256645
 H        -5.6741910645        9.9761025916        0.9585509159
 H        -8.4865411022        5.5078998286        1.8002095763
 H        -8.9401581725        6.8059257919        0.6698144684
 H       -10.8018444887        7.4214246679        1.9980624440
 H       -10.5585217269        6.3457335939        3.3382094621
 H       -15.2537289103        5.0146430632        0.4544838093
 H       -14.3918722480        4.3136556636        1.9158874732
 H       -15.0144570403        2.6201765332       -0.4919670337
 H       -16.3018595923        2.9527062767        0.6792233401
 H       -14.3541389669       -0.7859034888       -1.5963633747
 H       -15.2737150160       -2.1337165944       -0.7173300343
 H       -13.4717124276       -3.5220264949       -0.8846109066
 H       -12.4157652092       -2.3498900638       -0.2783878778
 H       -10.8676820570       -0.7015509685       -3.9765613895
 H        -9.3475642906       -1.2712595700       -4.4186861335
 H        -9.2805706821        1.0765397113       -3.4234111604
 H        -8.0127236646        0.0025435978       -2.9635931763
 H        -8.8407692815       -2.5058538246        0.4807077901
 H        -9.2768606694       -2.4303403351        2.1858072316
 H        -7.7370222442       -1.8925732162        1.8071090270
 H        -6.5761824121        0.1069984157       -1.1997599720
 H        -7.4093573156       -1.3580960251       -0.9499895907
 H        -6.6346828760       -0.6949586528        0.4174541915
 H        -9.0543838791        2.0798625142        1.0055865089
 H        -7.5239813984        2.2642659968        0.0396103828
 H        -7.5190346060        1.4860304821        1.4979192746
 H       -11.9243353251       -4.8523853070       -1.8402789712
 H       -10.8240429397       -4.0425208652       -0.6384013179
 H       -10.1533865445       -4.9195012223       -2.0450385754
 H       -11.7106912849       -2.9478642797       -5.0028326186
 H       -12.1218538211       -4.3351289853       -4.0708837210
 H       -10.4859141078       -4.0555217205       -4.6346297674
 H       -15.3703210188        0.2278497904        3.4773402984
 H       -13.6699870019       -0.0251856490        2.9923090005
 H       -14.8977011845       -1.3004488150        2.9104223334
 H       -17.0603592872        0.3083909328        1.7947049678
 H       -16.6313160373       -0.8848152949        0.6158978990
 H       -16.6428236012        0.9343856128        0.2261375662
 H       -14.1725605043        6.9481253563        0.7631609457
 H       -12.9788354509        7.7954284660        1.5673455698
 H       -13.6934343502        6.3354302379        2.3381987793
 H       -11.2560003980        5.5201503827       -1.2500836561
 H       -11.3178532903        7.2038602876       -0.8169084962
 H       -12.7659760198        6.3946195295       -1.4046464076
 H        -4.8798118194        6.1320028189        2.6245920862
 H        -6.3652621468        5.2905529823        2.1237886535
 H        -6.2909624124        5.9385504344        3.7048846199
 H        -5.9716493900        9.4885057304        3.4176403767
 H        -4.7174992585        8.2731610703        3.2812314384
 H        -5.9739512202        7.9909345162        4.4292051181
 H        -5.6254601524        9.4765092650       -2.5190362431
 H        -4.2499884954        9.8207466231       -3.7701568817
 H        -5.7462121908       10.8186362889       -3.6554376218
 H        -3.8516218841       12.3581748731       -3.6527314483
 H        -2.4745648026       12.0311914937       -2.4686524892
 H        -3.7626348054       13.1429681910       -2.2157787184
 Na      -11.3745766810        2.1318652241        0.9093068616
