117

 C       -13.7102380419        1.0531967620       -4.7496586845
 C       -13.0651698399       -0.1061425861       -4.0284429769
 O       -13.3950441305       -0.4697218923       -2.8864170732
 C       -11.8592298888       -0.8877001867       -4.6029782249
 C       -10.6324227403       -0.5078437428       -3.6839201855
 O       -10.5784354771        0.5955524609       -3.1205797359
 C        -9.3273284362       -1.4134903877       -3.7042485806
 C        -8.1996482414       -0.9210413109       -2.8561647088
 C        -8.1123094210       -1.8059895919       -1.4594694477
 O        -8.4700988042       -2.9499399122       -1.4493263803
 C        -7.6479846049       -1.0398922030       -0.1661379983
 C        -8.7206171523        0.0693686981        0.2234381629
 O        -8.2922888097        1.1932619596        0.5627333753
 C       -10.1455660518       -0.3929831891        0.2764105040
 C       -11.1793536458        0.6651087686       -0.0186725546
 C       -12.0774875929        0.9208451830        1.1872727905
 O       -12.0672714717        0.1342332533        2.0867754549
 C       -12.9705169425        2.1748724134        1.3159434502
 C       -12.0870029490        3.3704736901        1.8270515905
 O       -11.9391160235        4.3490670124        1.0860365639
 C       -11.4112573795        3.0762648106        3.1032015026
 C        -9.9825176530        2.5531370944        2.8456955871
 C        -9.0910400875        3.8355103499        3.0982293826
 O        -9.6092043430        4.8701129208        3.4877532289
 C        -7.5490659353        3.7690162825        2.7999274400
 C        -7.4585797245        4.1245320547        1.2335884644
 O        -8.3950596174        4.6789207802        0.7598643964
 C        -6.1803041960        3.7192127266        0.4102334069
 C        -6.2623281336        4.6295188665       -0.8391290919
 C        -6.1294728795        6.1448440390       -0.5867681109
 O        -5.3788972241        6.5248106203        0.3067511685
 C        -7.0261787238        7.2283582372       -1.3635191632
 C        -8.0283895621        7.7106398238       -0.2239680321
 O        -9.1739234381        7.2885730685       -0.3887068666
 C        -7.5976672799        8.6862358250        0.8586229911
 C        -8.4502517656        8.7342749413        2.1613585646
 C        -9.9410410786        9.0608900268        2.0672838964
 O       -10.7391530126        8.1449896023        2.0339584659
 C       -10.4919843322       10.5136368042        1.7417810450
 C       -10.2604030889       10.6761564594        0.1599782682
 O        -9.2939682496       11.2681310651       -0.2621769834
 C       -11.1920491778        9.9927907856       -0.7929284418
 C       -11.9647392800       10.6371949556        2.1331278531
 C        -9.6902555000       11.6119060031        2.4357593160
 C        -6.0517152786        8.3054566287       -1.8274335569
 C        -7.6805850183        6.6205366234       -2.6124367742
 C        -6.8850743283        4.8828174503        3.6397063590
 C        -6.9137397107        2.3952660701        3.1264377151
 C       -13.5677306004        2.6374402751       -0.0284553537
 C       -14.1662430234        1.7943963803        2.2704538279
 C        -7.5328233249       -2.0600807688        0.9522315822
 C        -6.3105447846       -0.3589322555       -0.3865065410
 C       -12.0399814213       -2.4634860889       -4.7492227170
 C       -11.4374864121       -0.3697686304       -6.0041215849
 H       -12.9021739606        1.7671641876       -5.1754046932
 H       -14.3044486015        1.5681735664       -4.0602029452
 H       -14.3839640516        0.6635245913       -5.5881188513
 H        -9.0230828101       -1.5604134426       -4.8095252663
 H        -9.5816104340       -2.4397998171       -3.2417659480
 H        -8.2295454826        0.1458949682       -2.6231690892
 H        -7.2617024755       -1.1161584345       -3.4864676414
 H       -10.3109684167       -0.9307277180        1.2086762269
 H       -10.2297532856       -1.0997827533       -0.5749960065
 H       -11.8095474550        0.4914888813       -0.8242720145
 H       -10.6087474262        1.6433480416       -0.1812786050
 H       -11.8989339143        2.2478821763        3.6261918636
 H       -11.3848870902        3.8895776757        3.7351635750
 H        -9.8169170098        2.1175402576        1.8677206201
 H        -9.5751741503        1.8070848975        3.5624402325
 H        -6.1743511418        2.6637591874        0.2506843450
 H        -5.2421692166        4.0287581583        0.9422998194
 H        -7.1349697802        4.3305679432       -1.3793630052
 H        -5.4707560195        4.4520851498       -1.5127951779
 H        -7.6932165067        9.7707201789        0.4943373867
 H        -6.5574842156        8.5401469775        1.0972088575
 H        -8.0396295695        9.5748080906        2.8484384370
 H        -8.4329058182        7.8114574608        2.7662911647
 H       -10.5816756518        9.6904291845       -1.6283863789
 H       -12.0248867677       10.6641120573       -1.1296187587
 H       -11.6913834400        9.2152216596       -0.2946108571
 H       -12.5037487384        9.7387282429        1.7347277915
 H       -12.3601841661       11.5964598363        1.8163417245
 H       -12.0317939878       10.5704751487        3.2075825149
 H        -8.9126045539       11.1650992632        3.0284642686
 H       -10.2534837466       12.2451613522        3.1212252358
 H        -9.2328898583       12.2592773957        1.7013920672
 H        -6.5805815936        9.0870971241       -2.3389424813
 H        -5.2682937076        7.8436563324       -2.4585031972
 H        -5.6008686431        8.7563792314       -0.9700890448
 H        -8.1201132330        7.3405634010       -3.2924807890
 H        -8.3491071409        5.7993300216       -2.4350011736
 H        -6.9537711773        6.2695807629       -3.2765473376
 H        -6.5227415763        4.3535607412        4.5615928859
 H        -7.6548251110        5.5749751438        4.0547355794
 H        -6.0874233575        5.4969050483        3.1786183550
 H        -6.8773614605        2.1473475926        4.1893101090
 H        -5.9466570108        2.2868717889        2.7875585307
 H        -7.5520713397        1.5692826545        2.8351697279
 H       -14.2854743816        1.9119522177       -0.4304044985
 H       -12.7947267520        2.7803066446       -0.7125632804
 H       -14.1028818791        3.5343774470        0.1415623702
 H       -13.9857084466        1.8163715993        3.3647276641
 H       -14.3925058199        0.7098028994        2.1564716681
 H       -14.9333388574        2.4756688526        2.0910635444
 H        -8.5791463432       -2.4348217480        1.0822503034
 H        -7.2081669925       -1.6377288228        1.9058502827
 H        -6.8713488658       -2.8667481750        0.5955449975
 H        -6.3806933466        0.1524672491       -1.3396888783
 H        -5.5357227844       -1.0449052366       -0.2556863057
 H        -6.1166311880        0.4057552737        0.4576197680
 H       -12.3574883307       -3.0454096458       -3.9101848604
 H       -11.0378673823       -2.8276338872       -5.0600233487
 H       -12.6963029896       -2.5713667972       -5.6144284596
 H       -10.5969690760       -0.8574485659       -6.5205935095
 H       -11.2067500147        0.6532997254       -5.8996053044
 H       -12.2813379973       -0.4174543464       -6.7213064908
 Na      -10.2412723447        6.1034551433        1.4239955796
