117

 C       -13.5025761581        1.1806246489       -4.4747193132
 C       -12.8949678955       -0.1214541882       -3.7556029836
 O       -13.2449923262       -0.4820404302       -2.6467818280
 C       -11.8203793507       -0.8715614034       -4.5928033892
 C       -10.4233049641       -0.5177734175       -3.7824084153
 O       -10.3691760591        0.4516233921       -3.0791080989
 C        -9.2563182201       -1.4966553362       -3.7958782563
 C        -8.0793740892       -0.9549024219       -2.8351276561
 C        -8.0724688104       -1.7944071142       -1.4767383713
 O        -8.4940186989       -2.9597766173       -1.3989204438
 C        -7.6331961142       -1.0753054378       -0.1647468387
 C        -8.7387536073       -0.0099377271        0.1575223103
 O        -8.4451416725        1.1189621908        0.4531356421
 C       -10.2686693114       -0.4599749100        0.1273321664
 C       -11.2048350043        0.7962673876        0.0036698486
 C       -12.2366164715        0.9217348882        1.1250941453
 O       -12.1573945023        0.0763903998        2.0520836091
 C       -13.0698205844        2.2313922258        1.2438740974
 C       -12.2035896319        3.3623473802        1.9005422897
 O       -11.9929135313        4.4361693564        1.3375704531
 C       -11.5800219624        3.1374840861        3.2397528828
 C       -10.0727372405        2.8494931046        3.0869494618
 C        -9.0448324862        4.0842618501        3.1438798327
 O        -9.4218104805        5.2372734602        3.3940604444
 C        -7.5489095448        3.7953717848        2.7664434259
 C        -7.5127884810        4.1330230850        1.2314415407
 O        -8.3697255702        4.8536694377        0.6616450159
 C        -6.2694261912        3.7389912091        0.4668385328
 C        -6.1847061651        4.4637079133       -0.8844843230
 C        -6.1607765730        5.9610351045       -0.5399141682
 O        -5.4608664189        6.3820494338        0.3839498990
 C        -7.0638625941        7.0780656527       -1.2885814965
 C        -8.0270980278        7.6052936897       -0.2552849719
 O        -9.2134948325        7.3596382532       -0.2921987913
 C        -7.5848681047        8.7006343389        0.6585501599
 C        -8.3469344939        8.7468816555        1.9817587544
 C        -9.8798496498        9.0662147694        1.8318302319
 O       -10.7271118482        8.1821522466        1.9938471965
 C       -10.3426150358       10.5201042224        1.5698983436
 C       -10.2315868858       10.7499825669        0.0605886539
 O        -9.3657815409       11.3762680047       -0.4743354528
 C       -11.2275031492       10.0362033767       -0.8665850377
 C       -11.8580004106       10.5683169500        1.9695995859
 C        -9.5469498023       11.5565906908        2.4022557853
 C        -5.9630208033        8.1510491574       -1.6860079450
 C        -7.8856789662        6.5698715332       -2.4597039205
 C        -6.6355955196        4.8490132151        3.5428642595
 C        -7.0669651262        2.4024356189        3.0005825549
 C       -13.5658897758        2.5691194311       -0.1520750316
 C       -14.3126549635        1.9341410433        2.2068958504
 C        -7.6180461693       -2.1159609739        1.0177398700
 C        -6.2623200607       -0.4091042311       -0.3517033415
 C       -12.0801941113       -2.4101466712       -4.5752142234
 C       -11.6361324538       -0.3209657926       -6.0211688751
 H       -12.7741263772        1.9403390137       -4.5783101278
 H       -14.4218459552        1.6188864246       -3.9369081353
 H       -13.8943492405        0.8572271841       -5.4117464989
 H        -9.0338561260       -1.6237390776       -4.8402912176
 H        -9.6291107303       -2.4193367930       -3.3846551670
 H        -8.2474077078        0.1372064516       -2.5757165231
 H        -7.1415048613       -1.0555589230       -3.3015640919
 H       -10.4851726903       -0.9179584704        1.1269645065
 H       -10.4835248609       -1.1724593712       -0.6582758486
 H       -11.8148114290        0.8664416732       -0.9908330992
 H       -10.5749272633        1.6470094435        0.1268668668
 H       -11.9312525413        2.2940490842        3.8122781188
 H       -11.6705717732        4.1112419331        3.8866827227
 H        -9.7591751228        2.4158997933        2.0959964468
 H        -9.6936108403        2.0961443988        3.7704825647
 H        -6.3149992578        2.6316500535        0.2091423309
 H        -5.4902724194        3.8843663000        1.2132130931
 H        -7.1040304508        4.0681343369       -1.3658621501
 H        -5.3421412872        4.1845805945       -1.6142385064
 H        -7.6814073518        9.6590539904        0.2502141424
 H        -6.5147399221        8.5600148209        0.9888202325
 H        -7.8168206611        9.3283321577        2.6945991931
 H        -8.4502047043        7.6956053285        2.3606237632
 H       -10.7593500908        9.9048899217       -1.8163063713
 H       -12.0547189002       10.6724553520       -0.9347807430
 H       -11.6700544977        9.0758132916       -0.4376155565
 H       -12.3665700082        9.8509558444        1.3951320165
 H       -12.2336185553       11.5396084634        1.7369478886
 H       -12.0431844335       10.2894323913        2.9914311002
 H        -9.2935226642       11.1395309274        3.3887901879
 H       -10.1171818179       12.4598614139        2.5346309370
 H        -8.6916078456       11.8783362010        1.7785599325
 H        -6.4579878018        9.0012847942       -2.1312626622
 H        -5.3237536002        7.6095312468       -2.3278069716
 H        -5.3695135027        8.4828703816       -0.8505664292
 H        -8.4303254679        7.3412525572       -2.9568876862
 H        -8.5927235029        5.8519701860       -2.1382899470
 H        -7.3486278717        6.0992604485       -3.2928374530
 H        -6.2703176205        4.4389734706        4.4574772524
 H        -7.1655435111        5.7592193367        3.8125888532
 H        -5.8384225460        5.1903774807        2.8754409111
 H        -7.2673670774        2.0506083580        3.9805166843
 H        -5.9357886939        2.2795153458        2.8225119950
 H        -7.5696424895        1.6238737089        2.4295655174
 H       -14.0884306353        1.7377499421       -0.5603877142
 H       -12.8018356474        2.8940828139       -0.8952708326
 H       -14.2373441726        3.4476879140       -0.0346390068
 H       -14.0754005599        1.3962298580        3.1072997589
 H       -15.0472523035        1.2963773435        1.6886121154
 H       -14.7581520864        2.9252826718        2.4405298391
 H        -8.3991400574       -2.8556093529        0.9771088834
 H        -7.6920837242       -1.5233381575        1.9575693030
 H        -6.6498471075       -2.5939957644        0.9571018501
 H        -6.3160737274        0.2377024073       -1.2128535371
 H        -5.5221034059       -1.2600891903       -0.4866754206
 H        -5.9210724285        0.0376165834        0.5076090018
 H       -12.1733520882       -2.6327127895       -3.4828135789
 H       -11.1839575394       -2.9593126728       -4.8314972178
 H       -12.9857359914       -2.6801389169       -5.1458349559
 H       -10.9145776949       -0.9770117187       -6.4943101597
 H       -11.1820466138        0.7175181304       -6.0887828368
 H       -12.4948196052       -0.3894330690       -6.6763998517
 Na      -10.3065177511        5.8825133627        1.5078890629
