117

 C       -13.3945888627        1.2543982211       -4.0384382973
 C       -12.7293345506        0.0291697583       -3.5307515928
 O       -13.0530002704       -0.4781759312       -2.4965100113
 C       -11.7006725688       -0.8708455757       -4.4200627325
 C       -10.3414660716       -0.5287629959       -3.7566241450
 O       -10.1815156509        0.4743540946       -3.0782734077
 C        -9.0858619625       -1.4567144827       -3.8125056789
 C        -7.9965972355       -1.1533721913       -2.8117407518
 C        -8.1986078252       -1.9603407599       -1.5703213768
 O        -8.5673226994       -3.0665940822       -1.5106322242
 C        -7.7452883600       -1.1133812821       -0.1778645806
 C        -8.8667737120        0.0407169441        0.0894253286
 O        -8.4686121020        1.1757280563        0.3496825856
 C       -10.2989205444       -0.3774386609        0.0345560393
 C       -11.3117962332        0.7917239023       -0.0177912677
 C       -12.1909683029        0.9027659385        1.2331069890
 O       -12.2315230808        0.1086177218        2.0903895453
 C       -13.1785792547        2.2640125190        1.2447798402
 C       -12.1903995211        3.3388463234        1.8278528471
 O       -12.1227370731        4.4107679427        1.2624539309
 C       -11.5994366990        3.2233560735        3.2477401143
 C       -10.0479308297        2.9772859492        3.4516258145
 C        -9.0102988357        4.1751454519        3.3385635658
 O        -9.3157855416        5.2948966731        3.6199102444
 C        -7.5512852587        3.8396693625        2.7406324565
 C        -7.5701616500        4.1484166637        1.2087906155
 O        -8.3346642954        4.8953572568        0.6655053504
 C        -6.4257314157        3.5295979527        0.3372931806
 C        -6.1918032265        4.4398400836       -0.9171761817
 C        -6.1783343594        5.9432067742       -0.4929765510
 O        -5.6250819399        6.2301877762        0.5159644011
 C        -7.0520045479        7.0653183054       -1.3347578962
 C        -8.0573965397        7.6969352075       -0.2926895955
 O        -9.2231703297        7.2697436596       -0.2592510357
 C        -7.5226552538        8.7086235993        0.6877885496
 C        -8.4382342921        8.7054521216        2.0203337992
 C        -9.8879562374        9.0274799264        1.7924349758
 O       -10.7076589157        8.1339370082        1.8679290206
 C       -10.3204480463       10.4592980039        1.4515913942
 C       -10.2242359149       10.6706602383       -0.0923341480
 O        -9.3442590345       11.4540843366       -0.4842307900
 C       -11.2058958014       10.1136548067       -1.0355296500
 C       -11.7676404671       10.7055777462        1.9595126648
 C        -9.4054562824       11.5040402431        2.1183773044
 C        -6.0458063015        8.1133643134       -1.9861644354
 C        -7.7511583070        6.3384862388       -2.4469737304
 C        -6.4964114266        4.8331892666        3.3583591771
 C        -7.2260006031        2.3462145519        3.0341534132
 C       -13.5225066154        2.7017516831       -0.1506423999
 C       -14.3846466328        2.0870448177        2.1108310659
 C        -7.7237997524       -2.1132083401        1.0568072203
 C        -6.3541971058       -0.4088128747       -0.3513234301
 C       -12.1790248671       -2.3500093455       -4.3415058241
 C       -11.5316588936       -0.4525859370       -5.9848240387
 H       -12.6904151043        2.0828975567       -4.0283282457
 H       -14.2821880975        1.5462057834       -3.5324783211
 H       -13.7865486569        0.9847240621       -5.0218864779
 H        -8.6902209133       -1.4041417858       -4.8124194597
 H        -9.5210854144       -2.4259841219       -3.6033037920
 H        -8.0281166843       -0.1108490327       -2.6020550479
 H        -7.0059723282       -1.4428637543       -3.2979026185
 H       -10.4606769441       -0.9888879468        0.9049464795
 H       -10.4455683841       -0.9960081979       -0.8644148631
 H       -11.9194864653        0.5776222807       -0.8363089222
 H       -10.7565095092        1.7763649601       -0.2145141489
 H       -12.0165950311        2.4051706806        3.8571014294
 H       -11.7761774603        4.1247467942        3.7153618502
 H        -9.5986627553        2.2103654554        2.8909994607
 H        -9.8892696829        2.6256136277        4.4732632284
 H        -6.6561899147        2.5462477619       -0.0039836528
 H        -5.4837519703        3.4068072899        0.9019198385
 H        -6.9389955160        4.2377545294       -1.7192665353
 H        -5.2821178320        4.0872739800       -1.3182450018
 H        -7.6680917195        9.6991897691        0.1189177966
 H        -6.5219293969        8.5876010343        1.0070885014
 H        -8.0430320698        9.4995554741        2.7422901967
 H        -8.3073713294        7.7328717099        2.5081160180
 H       -10.9768512119       10.6238193461       -2.0148079023
 H       -12.2754521448       10.2051948722       -0.6930954384
 H       -10.9993876398        9.0899212334       -1.1626140226
 H       -12.5353691223        9.9391551203        1.6832805511
 H       -12.0957156159       11.7091197531        1.5885594998
 H       -11.6968337169       10.6813007833        3.0619295517
 H        -9.7339814333       11.6767632872        3.1468776982
 H        -9.4880850323       12.4479468423        1.5472308141
 H        -8.3725524090       11.2547525968        2.0010902504
 H        -6.6107044136        9.0564546669       -2.1137632636
 H        -5.6930698610        7.6612271121       -2.9455554778
 H        -5.1423548634        8.2530814190       -1.3412691481
 H        -8.2533996908        6.9999005951       -3.2088525916
 H        -8.5770114403        5.5972797099       -2.1750913229
 H        -7.0359159107        5.7646758515       -3.0656945545
 H        -6.6653938786        4.8505108447        4.4310786629
 H        -6.5818218779        5.8428134621        3.0224371371
 H        -5.5052975796        4.5796062063        3.0861183193
 H        -7.6223565163        1.8968236149        3.9997856077
 H        -6.1949158484        2.1780947023        3.0389480027
 H        -7.5439629037        1.6325821064        2.2580280950
 H       -13.8704982061        1.8185868751       -0.7793271982
 H       -12.5941946074        3.0517472797       -0.6414762691
 H       -14.1832467152        3.5837651981       -0.1991766936
 H       -14.2561541212        1.2022404011        2.7745155589
 H       -15.2331946301        1.8948882746        1.4763461706
 H       -14.6756921354        3.0065533346        2.6443497896
 H        -8.6091131925       -2.7421391042        1.0408589281
 H        -7.6131562193       -1.5822893093        1.9519209275
 H        -6.9049539052       -2.8162261137        0.9110404354
 H        -6.4769006941        0.4961050073       -0.9794459137
 H        -5.5824438154       -0.9991371230       -0.7686568229
 H        -6.0574607968       -0.1686238545        0.7082523806
 H       -11.9269325192       -2.7839523940       -3.4134769965
 H       -11.6790545786       -2.9534312394       -5.0790707407
 H       -13.2303504745       -2.3027251516       -4.4512272688
 H       -10.6080227403       -0.8633209823       -6.4387052486
 H       -11.4340613824        0.5948727910       -6.0719104710
 H       -12.3551257363       -0.8220349491       -6.6305934329
 Na      -10.4112886158        5.9721066123        1.4594646856
