117

 C        -5.4489316204       12.8684122974       -0.1363479963
 C        -5.8485008749       11.7669847179       -1.1613454378
 O        -7.0224485245       11.4339217096       -1.4697741678
 C        -4.5667631978       11.1802896388       -1.9455626790
 C        -3.6593105921       10.3074564531       -0.9926686257
 O        -2.4686826874       10.6214029195       -0.7433997517
 C        -4.1872391352        9.0446861965       -0.2910820658
 C        -5.6145798573        9.1886348418        0.2556693992
 C        -6.1123167908        7.7760440113        0.7949375374
 O        -6.2238643959        6.8922678685       -0.0136210683
 C        -6.4014607239        7.5135039601        2.2791615996
 C        -8.0327132442        7.5922777110        2.5502060862
 O        -8.5255272223        8.4376467944        3.2806802540
 C        -8.8377287717        6.6158778443        1.6188537099
 C       -10.2748193996        6.4837576551        2.1245104127
 C       -11.1619286218        5.3839578888        1.5287773350
 O       -10.6664484750        4.2862125302        1.4701659238
 C       -12.4252064621        5.7794819719        0.6599870972
 C       -13.0993517433        4.4842383608        0.2552618432
 O       -12.5645187487        3.6832123110       -0.4988469417
 C       -14.5811976410        4.2289303974        0.7924194414
 C       -15.1143305511        2.8207012277        0.5747457235
 C       -14.4892423322        1.8084325359        1.5077046463
 O       -13.5694740673        2.0748210621        2.2625613542
 C       -15.0001446143        0.3439487733        1.4678838181
 C       -13.9775717932       -0.4218959881        0.3622306135
 O       -12.7852816800       -0.2559223108        0.5755275641
 C       -14.4380977731       -1.5023590889       -0.6372714137
 C       -13.1505371767       -2.3820006717       -0.9506629388
 C       -12.4234625909       -2.1899813752       -2.3073185006
 O       -12.7968684720       -1.4270303068       -3.1894450574
 C       -11.1963561791       -3.2156475157       -2.6517151191
 C        -9.8282907560       -2.3079194903       -2.5939254247
 O        -8.8101736134       -2.4894892014       -1.9438716134
 C        -9.8627576669       -0.9293448025       -3.3716926357
 C        -8.9080236389        0.1228429185       -2.6969267665
 C        -9.3548228091        0.4724864621       -1.2785947886
 O       -10.5087665895        0.9443161120       -1.0542890403
 C        -8.4075349068        0.2276245664       -0.0482434375
 C        -9.2354719284       -0.4963621061        1.0325810299
 O       -10.1388418923        0.0539769587        1.5661866561
 C        -8.9429067812       -1.8992811703        1.4042287822
 C        -7.0916721964       -0.3817509660       -0.5166092971
 C        -7.9964967645        1.6418978485        0.5484332061
 C       -11.0647158754       -4.4624135159       -1.6616071253
 C       -11.3578901991       -3.6427093048       -4.0526451456
 C       -14.7503815180       -0.2450297317        2.8480508551
 C       -16.5565750007        0.1950028471        1.0577023082
 C       -13.3228210131        6.8209409086        1.2453627913
 C       -11.8259992126        6.2393220163       -0.6831075003
 C        -5.9801462408        6.0536864605        2.5188106090
 C        -5.6779954231        8.4414742116        3.2532306821
 C        -5.0150399427       10.2029578953       -3.1310719745
 C        -3.6551182353       12.1970116595       -2.6827669585
 H        -5.4839531585       12.3490055195        0.8577733868
 H        -6.1039111570       13.7905171729       -0.1407402426
 H        -4.4293907686       13.1625921957       -0.3366685353
 H        -3.4395016897        8.8450488391        0.5098630457
 H        -4.1791822011        8.1579926384       -0.9767478277
 H        -6.3990017596        9.4332583425       -0.5302498030
 H        -5.6612142087        9.9510649438        1.0953006065
 H        -8.4782606274        5.5980766849        1.6794836186
 H        -8.6947739260        6.9058231114        0.5449348528
 H       -10.7935406830        7.4331578119        2.1985047663
 H       -10.1440950751        6.1479048561        3.2214370661
 H       -15.2360980852        4.8257513451        0.0992227760
 H       -14.6466048119        4.5649788188        1.8596284356
 H       -15.0346119127        2.5562858918       -0.5657081420
 H       -16.1878691248        2.8063415608        0.7719449148
 H       -14.9135396938       -1.1985106133       -1.5756569469
 H       -15.0327130128       -2.1338817957        0.0238663559
 H       -13.4393723390       -3.4812936613       -0.8250003718
 H       -12.3456768625       -2.3356298915       -0.1523671697
 H       -10.8847929888       -0.5626569746       -3.5579644766
 H        -9.5213011509       -1.0635829888       -4.4104521271
 H        -8.9211192330        0.9780844122       -3.3588059587
 H        -7.8741078530       -0.2004960020       -2.7450118945
 H        -8.9337806193       -2.5195911675        0.4927458550
 H        -9.5958532006       -2.2542293278        2.1190636224
 H        -7.9635893731       -1.9460267804        1.9588133519
 H        -6.5989792222        0.3405159344       -1.0690816011
 H        -7.1323952891       -1.3530104618       -1.1289685552
 H        -6.5079148365       -0.5868045040        0.3614334591
 H        -8.8350100664        2.1484143384        1.0768941136
 H        -7.4561565074        2.3066110316       -0.1863706925
 H        -7.2646561985        1.5375013583        1.3279228970
 H       -11.5783884652       -5.3185022108       -2.1264518074
 H       -11.3231507186       -4.4121372434       -0.6189872040
 H        -9.9517584376       -4.7434410246       -1.7008497901
 H       -11.4380320874       -2.8393535453       -4.7116157084
 H       -12.2498171731       -4.2889364779       -4.1821991574
 H       -10.4585096740       -4.1007423758       -4.4803415127
 H       -15.3944068646        0.2704350279        3.5341001567
 H       -13.7219135407       -0.2116992150        3.2196907293
 H       -15.1424382498       -1.2549504053        2.9166860252
 H       -17.1793477321        0.5598413133        1.8707974095
 H       -16.6279546712       -0.8580575807        0.9725258174
 H       -16.8306674697        0.8256226285        0.1253147180
 H       -13.9536902101        7.3993361434        0.4708997921
 H       -12.7501875716        7.6154943956        1.7128843186
 H       -13.9797870765        6.4993464330        1.9717147726
 H       -11.1605713173        5.4611173967       -1.1215771900
 H       -11.2767051477        7.2156457299       -0.7119291401
 H       -12.6471784700        6.2990178616       -1.3920132317
 H        -4.8898766005        6.0135076649        2.4536798482
 H        -6.3288288679        5.3885767870        1.7299932967
 H        -6.3699072211        5.6482802425        3.4761597722
 H        -5.9617902304        9.4790436971        3.0968199281
 H        -4.5649114703        8.3439239607        3.2221317552
 H        -5.9767982923        8.1612377002        4.2603826722
 H        -5.7782776640        9.5213437765       -2.6779192641
 H        -4.1093770357        9.8390845568       -3.5885203293
 H        -5.4946835983       10.9018338937       -3.8902879785
 H        -3.7605296168       12.1601910942       -3.7796117256
 H        -2.6289871331       11.9145550024       -2.3981816017
 H        -3.7317057883       13.3033060535       -2.5500938420
 Na      -11.5259340373        2.0855117408        0.9269796014
