117

 C       -12.9527578596        1.4429790253       -3.6537094215
 C       -12.5587229456       -0.0045216635       -3.1983645482
 O       -13.0737491824       -0.4926434677       -2.2658404289
 C       -11.5336898875       -0.8066187540       -4.1580852728
 C       -10.0754550134       -0.5393434368       -3.6017056352
 O        -9.7698587921        0.4628325145       -3.0399444511
 C        -8.9204525530       -1.4951849575       -3.9586606816
 C        -7.7657618296       -1.3771952392       -2.8704148974
 C        -8.2737805722       -1.9749919836       -1.5886651526
 O        -8.9267986066       -2.9628336987       -1.6056357826
 C        -7.9068666314       -1.2663469983       -0.2290220459
 C        -8.9755260596       -0.0502873722       -0.0306386395
 O        -8.5248489168        1.0570170938        0.1670938167
 C       -10.4429064976       -0.3983996920        0.0575804530
 C       -11.4678415588        0.8104673985        0.0379748522
 C       -12.1197011170        1.1348675345        1.3109318187
 O       -11.9614470226        0.4729433496        2.3317888473
 C       -12.9751152251        2.5148442149        1.3666692977
 C       -12.0267462323        3.5826632514        1.8553132019
 O       -11.5295371819        4.4001711599        1.0839265585
 C       -11.6556293642        3.5222958442        3.2919830016
 C       -10.2738086309        2.8570650919        3.3508480466
 C        -9.1736032419        3.9790256950        3.2201581228
 O        -9.5504857340        5.1234399533        3.4414238086
 C        -7.7678192240        3.6587837303        2.7500491286
 C        -7.6889929584        3.9159605799        1.2633704844
 O        -8.5948035202        4.5134221267        0.6594401029
 C        -6.4438621030        3.5501428313        0.4322453015
 C        -6.3425320140        4.3226130276       -0.8317184449
 C        -6.3249181783        5.8588449046       -0.4887104342
 O        -5.6616340323        6.2228484086        0.4129144569
 C        -7.1628887171        6.9050836457       -1.3872129859
 C        -8.2309217736        7.5991768458       -0.4862206366
 O        -9.4405230196        7.2521801285       -0.5694881111
 C        -7.7027280348        8.5537563586        0.5341296425
 C        -8.6096511533        8.6943636824        1.8731378628
 C       -10.0227594273        9.1627790956        1.6886979281
 O       -10.9876203476        8.4212492300        1.6981197646
 C       -10.2029072467       10.6253506538        1.3745090464
 C       -10.0805942528       10.6210277758       -0.2345498151
 O        -9.1472174997       11.1584567314       -0.7864707436
 C       -11.1644078631        9.9049725647       -1.0734937773
 C       -11.5949060610       11.2024196516        1.7592914939
 C        -9.0520895657       11.5175658591        1.9615388173
 C        -6.0711556858        7.9232418461       -1.8598212408
 C        -7.7172134917        6.2636497841       -2.7311403417
 C        -6.8506862265        4.7320827236        3.3718541221
 C        -7.3438181134        2.2338087296        3.1334243906
 C       -13.5484339810        2.8856049545       -0.0732913899
 C       -14.2065229246        2.2967040012        2.3327749209
 C        -7.9383447638       -2.1627052889        0.9677335951
 C        -6.5312249345       -0.5885059502       -0.2073956809
 C       -11.9808648216       -2.2639159357       -3.8864451497
 C       -11.6600360930       -0.5233151116       -5.6622767925
 H       -12.1355663520        1.9365159586       -4.0713737209
 H       -13.4212901018        2.0751415998       -2.8736090573
 H       -13.7557766391        1.2582502498       -4.3326761476
 H        -8.6523335486       -1.2063042044       -4.9007014936
 H        -9.2789184016       -2.4818556775       -4.0018645400
 H        -7.5199491087       -0.3806597950       -2.7337210504
 H        -6.8939061949       -1.9445135251       -3.3118456213
 H       -10.5551578711       -0.7958419654        1.0614915426
 H       -10.6239198401       -1.2480158749       -0.6254664786
 H       -12.1852186905        0.6332299316       -0.6965009692
 H       -10.8401476859        1.6980683519       -0.3345750454
 H       -12.3193897155        2.8979162881        3.9354665877
 H       -11.6157864406        4.5146423529        3.7178150637
 H       -10.1401012441        2.0588660297        2.6544820328
 H       -10.0199385037        2.4448211185        4.3370420100
 H        -6.5107772612        2.4908008811        0.2333021443
 H        -5.5502908278        3.6499970233        1.1031855294
 H        -7.2339565894        4.0878730293       -1.5083489421
 H        -5.4439641167        4.0975812500       -1.4135492712
 H        -7.6852124890        9.6204548916        0.1663291712
 H        -6.7389263560        8.2226413282        0.8294077437
 H        -8.0934406659        9.3735841288        2.6003697460
 H        -8.6602240612        7.7230123101        2.3215246112
 H       -11.8871971499       10.6731865393       -1.5061654741
 H       -11.7589258062        9.2330212467       -0.4655878780
 H       -10.6864292696        9.4455884526       -1.9048833440
 H       -12.3785257297       10.5781417243        1.4032198083
 H       -11.7833578380       12.1991046393        1.3542757132
 H       -11.6411155088       11.2805921192        2.8351846786
 H        -8.6956367371       11.0881565514        2.9259391890
 H        -9.4501798293       12.5424488630        2.1097407273
 H        -8.2540577244       11.4797370798        1.2495720357
 H        -6.4827584272        8.4637150392       -2.7029064726
 H        -5.2529535190        7.3416825931       -2.2520139830
 H        -5.7892452380        8.5252605343       -0.9851399134
 H        -8.2777870741        6.9702819664       -3.3238046759
 H        -8.4600423249        5.4345171090       -2.6522714160
 H        -6.8754653752        5.8103430614       -3.2762831494
 H        -7.0759561298        4.6542142203        4.4420592882
 H        -7.0801861023        5.7343937163        3.0744998830
 H        -5.7952605290        4.5877049591        3.2906718708
 H        -7.1210281393        2.1797029845        4.2554980260
 H        -6.4283689117        1.9062692510        2.6768673598
 H        -8.0121745403        1.4400132256        2.8031525084
 H       -14.0563373995        2.0631886668       -0.6127370341
 H       -12.6950588591        3.1799631542       -0.7838566738
 H       -14.2163520468        3.7815437184       -0.0861995578
 H       -13.9543057857        2.4925462178        3.3707840624
 H       -14.6464387683        1.3968013728        2.1333192668
 H       -15.0588932950        2.9589352301        1.9993783619
 H        -8.8628430079       -2.7342822254        0.9357015254
 H        -7.7761928457       -1.6516586878        1.8691130041
 H        -7.1464867744       -2.9275575945        0.8249374916
 H        -6.4469617007        0.0483106186       -1.1014198559
 H        -5.6904260503       -1.2434614629       -0.2910936808
 H        -6.5353785240        0.1245769600        0.6075544003
 H       -12.0001893608       -2.5011915418       -2.8069623206
 H       -11.3795473200       -2.9878131374       -4.4912717675
 H       -13.0133073535       -2.3172438517       -4.2545992429
 H       -11.0902563995       -1.3126005918       -6.1848899377
 H       -11.2503470162        0.4556092979       -5.9246761675
 H       -12.7370953278       -0.5218189304       -5.9709612271
 Na      -10.1459372703        6.3432643181        1.5314404952
