117

 C       -12.8634007900        1.5267532486       -3.5708448681
 C       -12.4986042695        0.0152475805       -3.2797582593
 O       -13.1033551321       -0.4935967991       -2.3193646562
 C       -11.5443595719       -0.8678186173       -4.0728163700
 C       -10.0503220202       -0.5212917855       -3.6359305680
 O        -9.7441742099        0.4676666136       -2.9860853825
 C        -8.8684010233       -1.5058704272       -4.0721897481
 C        -7.8402312270       -1.3825599855       -2.9553219147
 C        -8.3048593022       -1.8873241598       -1.5740429395
 O        -9.0474974928       -2.9124218533       -1.4929408733
 C        -7.9247271843       -1.2442097016       -0.2182413461
 C        -8.9788395086       -0.0710193987        0.0119491899
 O        -8.4983683661        1.0279998919        0.1227152439
 C       -10.4678716765       -0.3747202450        0.0435034626
 C       -11.3711794233        0.8567153373        0.0927798187
 C       -12.0717250942        1.2551554514        1.3653512347
 O       -11.9954584862        0.7178276023        2.4926838806
 C       -13.0447492519        2.5103630936        1.3050143529
 C       -12.0832034218        3.6027189833        1.8745116723
 O       -11.5866847830        4.3812486074        1.0902758681
 C       -11.6541012912        3.4348934953        3.3347698717
 C       -10.2155312076        2.9020377266        3.5312831080
 C        -9.1812128951        4.0507209063        3.2226399778
 O        -9.5089315424        5.2149799518        3.4298701705
 C        -7.7857996327        3.6361145195        2.7826683101
 C        -7.6705231231        3.8870310905        1.2106099927
 O        -8.5818357930        4.4984925046        0.6326161156
 C        -6.3846347716        3.5038954789        0.3710504801
 C        -6.4978125056        4.2982123358       -0.8901970011
 C        -6.3393979595        5.8231108719       -0.5558968573
 O        -5.7010726240        6.1940763406        0.4267246545
 C        -7.0926329460        6.8786560354       -1.4393835650
 C        -8.2016224205        7.4841141633       -0.4716751870
 O        -9.3961356354        7.2127360025       -0.6449731767
 C        -7.7862596950        8.5822078508        0.5465535418
 C        -8.6089759220        8.6130837754        1.8553844761
 C       -10.0112303531        9.2008214085        1.6973610689
 O       -10.9866425097        8.4853474105        1.7079086760
 C       -10.1845318006       10.7201851592        1.2767046694
 C       -10.0787911462       10.6603828880       -0.3004497795
 O        -9.0698209058       11.0677065595       -0.8071080557
 C       -11.1712050402        9.9177266937       -1.0553038637
 C       -11.5563131872       11.3066097906        1.7175423930
 C        -9.0297515129       11.6058789080        1.8247493246
 C        -6.1108191021        7.9301234411       -1.8656694441
 C        -7.7153435827        6.2414988699       -2.6867988616
 C        -6.7754819044        4.6644157606        3.4360688597
 C        -7.3744635008        2.2166596726        3.1895430295
 C       -13.5678261797        2.8458867470       -0.0951999515
 C       -14.3022940363        2.2899537254        2.2518981626
 C        -8.0413381713       -2.2730060624        0.9420112720
 C        -6.4443436729       -0.6264581399       -0.1622019197
 C       -11.9741571927       -2.3626534140       -3.7996936029
 C       -11.5796352767       -0.5677994963       -5.5814860350
 H       -11.9863899848        2.0502514877       -3.8805856024
 H       -13.1361509045        1.9470164694       -2.5730928152
 H       -13.7294698606        1.6757821230       -4.1997395405
 H        -8.4996776954       -1.3071544925       -5.0950309815
 H        -9.2952097130       -2.5294217687       -4.0424586010
 H        -7.6103496605       -0.3047042347       -2.8668756374
 H        -6.9404510838       -1.8994214933       -3.3323434543
 H       -10.7546692212       -1.0518013180        0.8432235052
 H       -10.5847899528       -0.9423557240       -0.8656466769
 H       -12.2360603346        0.5938253924       -0.5571483078
 H       -10.8091963260        1.5729332380       -0.4813843909
 H       -12.2681684230        2.7996876720        3.8526314257
 H       -11.6719232992        4.3820545493        3.8486454834
 H        -9.9446707799        2.0674148337        2.9015437990
 H       -10.0178641470        2.6149027128        4.5497584284
 H        -6.2228088758        2.4337684672        0.2390086655
 H        -5.6049542274        3.8242430563        1.0285927948
 H        -7.4007525246        4.0618241658       -1.4002434229
 H        -5.6846247432        4.2210110371       -1.5799067966
 H        -7.8773479602        9.6037962076        0.1888836580
 H        -6.7386379302        8.3335745023        0.8564308745
 H        -8.0366415683        9.1245616053        2.6463177275
 H        -8.7037053987        7.5264861639        2.1677496617
 H       -11.9758796093       10.6381817937       -1.1956280083
 H       -11.6148175551        9.1165957393       -0.5048325089
 H       -10.7564566837        9.6826767025       -2.1009431780
 H       -12.3188632121       10.6692992391        1.2856491708
 H       -11.7726126397       12.3303775512        1.3392161504
 H       -11.6713882410       11.3455094661        2.8327611856
 H        -8.8751319594       11.4253441030        2.9032784071
 H        -9.2473185352       12.6358150475        1.5942979786
 H        -8.1487590576       11.2208751664        1.3051848603
 H        -6.6776928037        8.6351046524       -2.5186990426
 H        -5.3514059181        7.4873562957       -2.5077967440
 H        -5.7672632834        8.3619794817       -0.9029657191
 H        -8.1537779472        6.9835577040       -3.3795139386
 H        -8.6235197364        5.6661168137       -2.4099106156
 H        -7.0524876012        5.4822083993       -3.2363409124
 H        -6.6206698933        4.4121384647        4.4564895477
 H        -7.1586019090        5.6609597862        3.4011644229
 H        -5.7612809678        4.6501355887        3.0549182550
 H        -7.5082528588        1.9845807919        4.2184256642
 H        -6.2434051642        2.0674693232        3.0149229503
 H        -7.7706787931        1.4691455611        2.5214791754
 H       -14.0758044529        2.0334509451       -0.6327074426
 H       -12.7588563683        3.2249976667       -0.8115359114
 H       -14.3212722861        3.7020054935       -0.0328069197
 H       -13.9683643504        2.3427604447        3.2523980487
 H       -14.7893431043        1.3647986255        1.9514297559
 H       -15.1351344384        3.0034185816        2.0800397033
 H        -8.8438354957       -2.9358706684        0.7559243293
 H        -8.0889972500       -1.8337139897        1.9326302976
 H        -7.1441409144       -2.8674285750        0.9026838957
 H        -6.2754473892        0.1901121860       -0.8834732404
 H        -5.6597687705       -1.3917375803       -0.4622449095
 H        -6.3177005145       -0.1602317968        0.7507096107
 H       -11.6744311375       -2.6125670347       -2.7799870047
 H       -11.5149691807       -2.9743736492       -4.5366877217
 H       -13.0450650577       -2.5075775866       -3.8757900484
 H       -10.8792587002       -1.2536707778       -6.0340886271
 H       -11.3075669137        0.5034555938       -5.8304330603
 H       -12.5734634681       -0.7260166495       -5.9636199052
 Na      -10.1755691741        6.2380718546        1.4877813444
