117

 C       -12.3413230893        1.5269594969       -3.7201600895
 C       -12.4327430655        0.0073419605       -3.2969801026
 O       -13.1561120909       -0.3484326840       -2.3801212896
 C       -11.3716833276       -0.9557075219       -3.9509357816
 C        -9.9536978149       -0.4909090431       -3.5518426908
 O        -9.8113349216        0.4768163225       -2.8235987687
 C        -8.8225440213       -1.3322538871       -4.0431668191
 C        -7.8589136887       -1.4133396613       -2.8118603709
 C        -8.4989136390       -1.9560176182       -1.5613635169
 O        -9.5287013994       -2.6499214265       -1.5290219662
 C        -8.0845831290       -1.3492884516       -0.1647163714
 C        -8.9805188448       -0.0778759993        0.1686378053
 O        -8.4372322865        1.0120469269        0.2372041054
 C       -10.4088590348       -0.3218452299        0.4494151764
 C       -11.3174892935        0.8500513411        0.1240669075
 C       -12.0488201373        1.2279452315        1.3430268892
 O       -11.8116298181        0.6552996158        2.4411692701
 C       -13.0378639923        2.4647089476        1.4194623441
 C       -12.2594429310        3.6424120715        2.0197999377
 O       -12.1495334003        4.5872866378        1.2670296352
 C       -11.7472105626        3.7137810853        3.4703712275
 C       -10.2494264781        3.1986832347        3.6382836333
 C        -9.1007986503        4.2306760833        3.3555267876
 O        -9.2940238093        5.4255024699        3.3981977561
 C        -7.7369724740        3.7064751196        2.8203790709
 C        -7.7105153263        4.0132117792        1.3101921754
 O        -8.6440597829        4.7143711165        0.8435802098
 C        -6.5968626297        3.4358372576        0.3705073605
 C        -6.4968250729        4.2345775057       -0.9011642169
 C        -6.4114786728        5.7762934187       -0.6364325911
 O        -5.7815825764        6.1685940222        0.3206392734
 C        -7.1191129035        6.8331913903       -1.5394558020
 C        -8.1114999262        7.3916633024       -0.3636950495
 O        -9.3075978872        7.0092687222       -0.3807849782
 C        -7.5505176681        8.4222764386        0.5395841608
 C        -8.3984563517        8.5988710087        1.8492083426
 C        -9.7931266794        9.1841880000        1.5278031103
 O       -10.7720460116        8.5000181990        1.6452150798
 C       -10.0433183960       10.7049631751        1.1038455228
 C       -10.0492903709       10.6916360918       -0.5356117802
 O        -9.0026878633       10.8113054866       -1.1030087424
 C       -11.3545458152       10.2600805013       -1.3170846007
 C       -11.4674396287       11.1380359065        1.5620053998
 C        -8.9212434284       11.6496152663        1.5461058336
 C        -6.0747348829        7.8604941852       -1.9563920232
 C        -7.8367201749        6.4042221112       -2.8098809497
 C        -6.5810840940        4.5037372969        3.5125760423
 C        -7.4124098039        2.1459514738        3.0274166477
 C       -13.3678866532        2.8510864890       -0.0135228798
 C       -14.3388008542        2.0514489571        2.1580020049
 C        -8.3328179527       -2.3178769841        1.0155778736
 C        -6.5879596089       -0.8988448420       -0.2237724487
 C       -11.7100947923       -2.4348232249       -3.7394475945
 C       -11.6705753698       -0.7926226730       -5.5190943393
 H       -11.3399246816        1.8308243894       -3.8219134264
 H       -12.8555766512        2.0278730587       -2.8380595723
 H       -12.9129720970        1.7356328506       -4.6067297342
 H        -8.4431015134       -0.8793124900       -4.8831322520
 H        -9.2310555015       -2.2583470248       -4.3465526618
 H        -7.5521070718       -0.4412804075       -2.6514403266
 H        -6.9044388686       -1.9979289289       -3.0048585549
 H       -10.4794847062       -0.6209498569        1.5104633961
 H       -10.7185052758       -1.2475303765       -0.1045932579
 H       -11.8771379017        0.5109597378       -0.6847839063
 H       -10.7010388007        1.6954795392       -0.3399149846
 H       -12.3423260459        3.0299107769        4.1211965787
 H       -11.8474201124        4.7707381853        3.9168526744
 H        -9.9820088547        2.3617975603        3.0107603253
 H       -10.0403842869        2.9117628884        4.6986278573
 H        -6.7523487340        2.3682458108        0.1449913932
 H        -5.6275270367        3.4183939432        0.9461063570
 H        -7.3121934975        4.1237821707       -1.7118044780
 H        -5.4859200251        3.9586157151       -1.2892785829
 H        -7.5761891681        9.3860095615       -0.0701350130
 H        -6.5709343936        8.1035411836        0.7883446829
 H        -7.9138453413        9.2501271098        2.5916445221
 H        -8.4079577871        7.6212093010        2.3015191753
 H       -12.2894954610       10.6145297014       -0.8820590335
 H       -11.4118304087        9.2253904873       -1.1803154644
 H       -11.2555406301       10.5220700839       -2.3980871564
 H       -12.1868545157       10.4054980541        1.3874969050
 H       -11.7625751034       12.0407958975        1.0344982911
 H       -11.5116715823       11.4274822094        2.6074982884
 H        -9.2178200824       12.2533387561        2.4225130268
 H        -8.7318399482       12.2786110659        0.6914442693
 H        -8.0818576121       11.0760087001        1.8194930254
 H        -6.5374533592        8.8191502193       -1.9548584455
 H        -5.8620819478        7.6426343391       -2.9437603665
 H        -5.2591171123        7.7636337292       -1.2631383616
 H        -8.3378577356        7.2005174236       -3.2564985281
 H        -8.5050530032        5.6002250152       -2.5794547817
 H        -7.1861129311        6.0298743010       -3.5869934757
 H        -6.2701219895        4.0876101685        4.4885751886
 H        -6.8821899417        5.5546561243        3.6539542792
 H        -5.5976673495        4.4461223923        3.0124381923
 H        -7.5471032797        1.8199258045        4.0839357752
 H        -6.3288868951        1.9698878076        2.8331417953
 H        -7.9912006361        1.5274157631        2.3479167039
 H       -13.8793914785        2.0884905153       -0.4639828974
 H       -12.4785042628        3.0160553047       -0.6166949135
 H       -14.0491660463        3.6530451622       -0.1340427846
 H       -14.2477794450        1.2280348252        2.8442267853
 H       -15.0290491517        1.8968118667        1.3737929271
 H       -14.6726233182        2.9724788347        2.7812460299
 H        -9.3674312864       -2.7134241029        1.0744715505
 H        -8.0951536045       -1.7878683046        1.9307284740
 H        -7.5550974233       -3.1407889567        1.0044559570
 H        -6.5564359147        0.1206859377       -0.6289746857
 H        -5.8917706620       -1.5774941186       -0.7810161481
 H        -6.1730513533       -0.7523257124        0.7371259810
 H       -11.4536416188       -2.7132291637       -2.6981424474
 H       -11.3941065306       -3.0764151183       -4.5602994040
 H       -12.8073569267       -2.5132869202       -3.7585893060
 H       -10.9650931707       -1.4406586603       -6.0099413572
 H       -11.6242445340        0.2652323045       -5.8379100589
 H       -12.6836638050       -1.1727683131       -5.6998190661
 Na      -10.5131274477        6.1635504398        1.2786664580
