117

 C       -12.5046591363        1.4928785051       -4.2637664488
 C       -12.4734817766        0.1717939161       -3.4671741853
 O       -13.0806937553        0.0956832794       -2.3558265898
 C       -11.4269331351       -0.8548224910       -3.9442661924
 C        -9.9789091031       -0.5849699929       -3.3972574754
 O        -9.8235085436        0.4615119085       -2.7468674018
 C        -8.8937561787       -1.5277266606       -3.8796029960
 C        -7.8191295800       -1.5852273148       -2.7785738152
 C        -8.4256457501       -1.9680476907       -1.4940297406
 O        -9.5076324416       -2.6276768331       -1.4977982178
 C        -7.9490914842       -1.6313368112       -0.0594478140
 C        -8.8701168825       -0.3870456269        0.3270622680
 O        -8.4008963976        0.7368671204        0.3881221671
 C       -10.4335907053       -0.5504692219        0.5941980049
 C       -11.2774094896        0.7941097697        0.4407941411
 C       -12.0374114478        1.3197976758        1.6625705428
 O       -11.7775231049        0.7166166627        2.7104273222
 C       -13.1910855821        2.5093331750        1.5616071778
 C       -12.3980956109        3.8628995060        2.0782661850
 O       -12.2251257328        4.8242112865        1.4146206206
 C       -11.7966841151        3.8518406823        3.4994275252
 C       -10.4297572973        3.1237078461        3.5254837999
 C        -9.2730984429        4.1905171217        3.3357455428
 O        -9.4656270457        5.3420840770        3.5752505749
 C        -7.9036103444        3.7149852696        2.8035602215
 C        -7.9234661534        4.0675148138        1.2330878020
 O        -8.6973013041        4.8403637525        0.7217096829
 C        -6.7753062641        3.4888126377        0.3985237679
 C        -6.6124274290        4.1986307487       -0.8834334933
 C        -6.2595774044        5.7132021276       -0.7181456624
 O        -5.3503635585        6.1310635409       -0.0378391874
 C        -7.0396537446        6.8349433532       -1.6166318228
 C        -8.0088458803        7.6074015444       -0.5662088265
 O        -9.2051207721        7.3133282287       -0.5362921748
 C        -7.3414362058        8.5168151169        0.5331675189
 C        -8.3965236274        8.7307914343        1.7439804731
 C        -9.7992718419        9.2461180937        1.3925945283
 O       -10.7910570936        8.5976937099        1.5474702587
 C        -9.9957722572       10.7224098076        0.8745644957
 C       -10.0481385093       10.4904821755       -0.7854032653
 O        -8.9587810111       10.3504708369       -1.3365421574
 C       -11.3559234567       10.5154654255       -1.5228762933
 C       -11.3091450648       11.3019014297        1.3344467836
 C        -8.7617449356       11.6406107165        1.2938090806
 C        -5.9229512356        7.8529352774       -2.1665408051
 C        -7.8207176298        6.2388956002       -2.8395233210
 C        -6.8594740016        4.6620463884        3.4439341111
 C        -7.6105300007        2.2229886733        3.0417065489
 C       -13.6349585808        2.7231466586        0.1281850780
 C       -14.3689936434        2.2767970353        2.5594691495
 C        -8.2637532079       -2.8134474052        0.8395472939
 C        -6.5131764706       -1.0900105327        0.1018941345
 C       -11.9673578456       -2.3390035362       -3.6467888096
 C       -11.3365820323       -0.8646042356       -5.4860806887
 H       -11.4769735677        1.8619044818       -4.1436119373
 H       -13.2334133939        2.1801968567       -3.7608054686
 H       -12.6380464951        1.2679166608       -5.3267617427
 H        -8.4397099031       -1.2251027993       -4.8326990046
 H        -9.2853234434       -2.5220186623       -4.0597526263
 H        -7.2505312406       -0.7021738481       -2.7139069027
 H        -7.0012578274       -2.3346283412       -3.0474234362
 H       -10.6321473352       -0.8586431436        1.6326075238
 H       -10.8459402829       -1.4198568875        0.0383450559
 H       -11.8693270581        0.6592594032       -0.4156275030
 H       -10.5204785776        1.5746384847        0.1371994160
 H       -12.4196797892        3.4469277943        4.3266267358
 H       -11.7199174030        5.0042017163        3.6666772014
 H       -10.2996271709        2.4305993919        2.6968439293
 H       -10.2017533583        2.6054484074        4.4941497217
 H        -7.0581906429        2.4506492101        0.1504380644
 H        -5.9232861146        3.3349170672        1.0984466806
 H        -7.5873495707        4.2572031511       -1.4432185453
 H        -5.7698345393        3.8108008484       -1.5388385740
 H        -7.0481187117        9.5346682589        0.1158647481
 H        -6.5202122421        7.9232878764        0.8971843957
 H        -7.8655494901        9.2828412873        2.4814013320
 H        -8.5078900736        7.7635538979        2.2143030839
 H       -11.7316721101       11.5206103604       -1.5160309728
 H       -12.0524555943        9.8886296252       -1.0685547050
 H       -11.1456441252       10.1376179598       -2.5707678180
 H       -12.1806853412       10.7794253521        0.9494817338
 H       -11.4385425569       12.3850071866        1.0878695110
 H       -11.5125475482       11.1923401976        2.4351572790
 H        -8.1116316703       11.1459399722        2.0250531547
 H        -9.1266954670       12.5625305026        1.7086991067
 H        -8.2015858840       11.9037378594        0.4145269073
 H        -6.5061697704        8.6016834907       -2.7193986318
 H        -5.2233256050        7.2808857538       -2.7311829319
 H        -5.4511511303        8.2970762154       -1.2697179130
 H        -7.9195571893        6.9475021653       -3.6301504593
 H        -8.7767123640        5.8797690584       -2.5066155605
 H        -7.2855423280        5.3864512468       -3.3381261172
 H        -7.0369450700        4.8062944996        4.5125117292
 H        -6.9005215424        5.6764842689        3.0186303730
 H        -5.8112793349        4.2971557139        3.3262556906
 H        -8.1136045465        1.9150421869        3.9201959159
 H        -6.4914339455        2.1559649475        3.1538274987
 H        -8.0066284615        1.6198803427        2.2819327662
 H       -14.0836282533        1.8533135800       -0.2314962167
 H       -12.7734212475        2.8586967355       -0.4909813107
 H       -14.3099366000        3.5202243483       -0.0913461427
 H       -14.0378771529        2.4549036907        3.5551533983
 H       -14.6969745337        1.2369497479        2.5875711545
 H       -15.0767404671        3.0968465718        2.3059675969
 H        -9.2712017288       -3.1783111524        0.7606222358
 H        -8.1827596598       -2.4672837514        1.8665042439
 H        -7.5219296680       -3.6113983895        0.6518974329
 H        -6.3911535830       -0.2681851928       -0.6001640419
 H        -5.7241188256       -1.8610302873       -0.1515690969
 H        -6.1864341970       -0.9083597183        1.0484072580
 H       -12.4345105537       -2.4356672111       -2.6636679999
 H       -11.2959729590       -3.1172511015       -3.8621422002
 H       -12.7406642465       -2.4544058362       -4.3758054381
 H       -10.6548205195       -1.6401877439       -5.7125349177
 H       -10.8808670189        0.0630005090       -5.8797355943
 H       -12.3041807161       -1.1421640931       -5.8342871690
 Na      -10.3222021347        6.1986618400        1.6404326491
