117

 C       -12.6663152054        1.5368363268       -4.5696636422
 C       -12.3784925951        0.3487462115       -3.5655546022
 O       -12.8684377537        0.3189076593       -2.5039056785
 C       -11.4514271394       -0.9065501622       -3.9823718661
 C       -10.0643460561       -0.6424730532       -3.4108581725
 O        -9.9058290910        0.3225364713       -2.7301062931
 C        -8.8127983175       -1.5111643828       -3.8151477225
 C        -7.9053941443       -1.5047337420       -2.5566850830
 C        -8.6755581516       -2.1015587067       -1.3689490829
 O        -9.5242258453       -2.8936048027       -1.5968965869
 C        -8.1151460556       -1.6988887150        0.0792508522
 C        -9.0011986947       -0.3103569011        0.4556668610
 O        -8.4572413928        0.7746133364        0.6071357745
 C       -10.4623566717       -0.4580964773        0.8111609834
 C       -11.2623612798        0.8580192758        0.6133797422
 C       -12.1001063348        1.2199980306        1.7648455307
 O       -12.0373791482        0.7839140858        2.8988218193
 C       -13.1344742672        2.4350861205        1.5709869198
 C       -12.2974558952        3.6086140744        2.0672846240
 O       -11.9132634273        4.5146629698        1.2454573642
 C       -11.8129444034        3.6724175866        3.5458154692
 C       -10.3498446880        3.2090679299        3.7296391091
 C        -9.2974023304        4.2904181341        3.4761513600
 O        -9.4980784987        5.4763121270        3.8042045880
 C        -7.9023346113        3.8340345473        2.8297007064
 C        -7.8758707285        4.1534304500        1.2819467170
 O        -8.8123677776        4.7852698647        0.7864981042
 C        -6.7556897718        3.5128913346        0.3285298604
 C        -6.6354365651        4.2148185183       -1.0081366564
 C        -6.1571799581        5.7544222399       -0.8637064373
 O        -5.3100512919        6.0676405116       -0.0478565563
 C        -6.9926045406        6.8595049795       -1.6205801895
 C        -8.0132285321        7.4532870174       -0.5660262075
 O        -9.1932589142        7.1509732028       -0.6152612120
 C        -7.4472466659        8.4913474295        0.4350332187
 C        -8.3545231127        8.7168697127        1.6166696866
 C        -9.7208205906        9.3038776672        1.3176236657
 O       -10.7308944616        8.6102174068        1.6075824209
 C        -9.9076066384       10.7431821163        0.7257863183
 C        -9.9013828455       10.4634292491       -0.8080982572
 O        -8.8787321545       10.2152716030       -1.3767065371
 C       -11.3217721642       10.5758734575       -1.5613278374
 C       -11.2086336373       11.3933750393        1.2313431779
 C        -8.7367752419       11.7423672228        0.9881759527
 C        -5.9617308781        7.8924417652       -2.1825786579
 C        -7.8305485973        6.3192517359       -2.8115243462
 C        -6.7779008724        4.7853184098        3.4216512830
 C        -7.4961871522        2.3439994225        3.1612919851
 C       -13.6085552126        2.6877600020        0.1775772442
 C       -14.3422045007        2.0516965138        2.4795897530
 C        -8.3069973934       -2.8405409473        1.1295673942
 C        -6.6283417334       -1.3004767456       -0.0505741119
 C       -12.1169536188       -2.1429159891       -3.5228637634
 C       -11.2333249595       -0.8670150828       -5.5586648566
 H       -11.7274971027        1.9633371634       -4.8330466057
 H       -13.2216958190        2.1982106581       -3.9366552676
 H       -13.1274884506        1.1632734688       -5.4545118678
 H        -8.2456559525       -1.0152215421       -4.5664241641
 H        -8.9859570981       -2.5265379450       -4.1801412460
 H        -7.5723371922       -0.4506924403       -2.4009145744
 H        -6.9766684684       -1.9976538310       -2.6928197455
 H       -10.5640772353       -0.7988692105        1.8511465672
 H       -10.8835035413       -1.2985467687        0.2628378307
 H       -11.9708610525        0.7754635707       -0.2909983886
 H       -10.5343034184        1.6035776934        0.3452118514
 H       -12.4341710506        2.9924255661        4.1434074747
 H       -11.9579828113        4.6455128515        3.8954032157
 H       -10.0166815146        2.4060575158        3.0758105131
 H       -10.2169842549        2.9252930246        4.7608398326
 H        -6.9027122189        2.4255624283        0.2050995061
 H        -5.8788951009        3.5801221751        0.9702443785
 H        -7.5297055651        4.1850420101       -1.5933596123
 H        -5.8376507628        3.8717719256       -1.6145723693
 H        -7.3504774080        9.4327355691       -0.0702211984
 H        -6.4457533278        8.0394707309        0.7026342263
 H        -7.7468849561        9.2734435792        2.3848689699
 H        -8.5096692477        7.7333630040        2.0834568184
 H       -11.4530915025       11.6363968195       -1.8635914831
 H       -12.1864864600       10.2941545895       -0.9143086436
 H       -11.3439929644        9.9496223933       -2.3999334364
 H       -12.0314513936       10.7094269645        1.3119142510
 H       -11.5355502664       12.1497571152        0.5613232912
 H       -11.1803803619       11.8268199071        2.1760495380
 H        -7.7875177027       11.2654623831        1.1845153215
 H        -8.9385578835       12.4323003548        1.8215826447
 H        -8.7047463478       12.3764737815        0.1061178602
 H        -6.4658717028        8.8031837193       -2.1041791191
 H        -5.6613277558        7.5853012550       -3.1671102601
 H        -5.1130640852        7.9037170136       -1.5445392203
 H        -8.3663705991        7.2025776940       -3.1921207454
 H        -8.6748588056        5.7524619239       -2.4049484347
 H        -7.3235910404        5.8069537094       -3.5895561195
 H        -6.5186726265        4.4138775178        4.4382588047
 H        -6.9863944618        5.8565233152        3.5481624302
 H        -5.8890309634        4.7319127956        2.7887207331
 H        -8.0352937404        1.9985012172        4.0963540302
 H        -6.4505348947        2.3213172850        3.1425820951
 H        -7.9370012557        1.7010951980        2.3570297962
 H       -14.1859197545        1.8857960500       -0.2942885703
 H       -12.8011260894        3.0180550280       -0.5096823030
 H       -14.1880216223        3.6060820295        0.1827913093
 H       -14.0695610998        1.7746526456        3.5106916995
 H       -14.5987220189        1.1093257545        2.0863883547
 H       -15.1104523461        2.8140987177        2.3932253356
 H        -9.3169476027       -3.2909474869        0.9492589058
 H        -8.3100976903       -2.5327238376        2.1835244359
 H        -7.5662480227       -3.6158248238        0.9295754589
 H        -6.4172591286       -0.3927425811       -0.5972467155
 H        -5.9217689492       -2.0022446603       -0.3409145102
 H        -6.2932259536       -1.1699550802        1.0274500839
 H       -12.0733483911       -2.1672273754       -2.4250467622
 H       -11.5205215731       -3.0435532348       -3.8794647924
 H       -13.1817453874       -2.1720377985       -3.8458002600
 H       -10.7129509623       -1.7450514035       -5.9821272996
 H       -10.5870175103       -0.0609506556       -5.7319254779
 H       -12.2522894400       -0.7622147512       -5.9418909132
 Na      -10.3951237647        6.3932968451        1.3791095894
