117

 C       -12.7758271364        1.5821393563       -4.7501325255
 C       -12.4007538252        0.4732711662       -3.7735599087
 O       -12.6408678616        0.5335113622       -2.5448670466
 C       -11.4595923571       -0.6939913539       -4.2208211884
 C       -10.0860796945       -0.4826340156       -3.4354018522
 O        -9.9987640060        0.3676282538       -2.5414828903
 C        -9.0338815924       -1.4990638838       -3.6808623258
 C        -8.0972850290       -1.5558528650       -2.5091736763
 C        -8.7079685331       -2.1103961365       -1.2309781777
 O        -9.5339705252       -3.0110663918       -1.2785666440
 C        -8.1915185901       -1.6678071950        0.1936178400
 C        -8.9575947374       -0.3799666818        0.4856363728
 O        -8.4236376610        0.6811207267        0.6742972871
 C       -10.4238334914       -0.5695442630        0.8891743422
 C       -11.2581394649        0.6638770502        0.5424012666
 C       -12.1637421509        1.0443912581        1.7281639797
 O       -12.1034973590        0.5424830403        2.8206081665
 C       -13.0140089504        2.3703148518        1.6452660860
 C       -12.0939024167        3.5563557360        2.1585433370
 O       -11.7263063714        4.2813541466        1.2952251694
 C       -11.7229440564        3.6879264209        3.6064865634
 C       -10.2836518107        3.2664477322        3.8175743221
 C        -9.2482008774        4.4061613350        3.4129332801
 O        -9.5488523058        5.5701567810        3.4190704409
 C        -7.8101636716        4.0011819405        2.9125719042
 C        -7.8846190305        4.1887828151        1.3472590423
 O        -8.7832781027        4.7322477660        0.7521469306
 C        -6.7245247135        3.5797330792        0.5580508432
 C        -6.8136538565        4.1607279699       -0.8822507477
 C        -6.3505479117        5.7158319610       -0.8733258004
 O        -5.4522087555        6.0508123975       -0.1436399231
 C        -7.0393540356        6.8536511999       -1.6908228523
 C        -8.0400104605        7.3884589000       -0.5740352003
 O        -9.1690401057        6.9670450356       -0.4793975241
 C        -7.3984715456        8.4586412467        0.4494333800
 C        -8.3023839001        8.8063194882        1.6202564613
 C        -9.6706257757        9.3611211774        1.2886434823
 O       -10.6162665341        8.6914177183        1.5538527212
 C        -9.8222835577       10.7794882886        0.6151348661
 C        -9.9393826336       10.4679996766       -0.9815626739
 O        -8.8771768537       10.1751740608       -1.5306954649
 C       -11.2401406877       10.5149152380       -1.7097865833
 C       -11.1042956004       11.4330495520        1.1969859878
 C        -8.6097587451       11.7113773115        0.8791631170
 C        -6.0113815779        8.0078671153       -2.1159286572
 C        -7.7980346643        6.3387886825       -2.9034590095
 C        -6.7567173133        4.9830275900        3.4591548585
 C        -7.4128069203        2.5198687634        3.2346417984
 C       -13.4317740283        2.5650953039        0.1574223675
 C       -14.3471667523        2.2756224595        2.4544299766
 C        -8.6466177107       -2.8033859264        1.2379058302
 C        -6.6594392791       -1.3976753422        0.2221806169
 C       -11.9606381219       -1.9776859680       -3.5399555255
 C       -11.4202054841       -1.0228772817       -5.7318328818
 H       -11.9233653519        1.6592841085       -5.4782788524
 H       -12.9383461575        2.4840998087       -4.1984682169
 H       -13.6276080719        1.1373265331       -5.2762492012
 H        -8.4464923477       -1.2204427081       -4.6426254377
 H        -9.3860127070       -2.5510539582       -3.8223931339
 H        -7.5906031279       -0.6052798240       -2.3944477008
 H        -7.2413208442       -2.2876001675       -2.6508575717
 H       -10.4373405888       -0.7937264284        1.9617566763
 H       -10.9578215229       -1.4235621813        0.4407337581
 H       -11.7343849891        0.4548445269       -0.3830575605
 H       -10.5062256995        1.4636497799        0.3413191446
 H       -12.3707630473        3.0395633760        4.1750250889
 H       -11.8536555574        4.7560640275        3.9547394359
 H        -9.9210443102        2.4144899457        3.2523884553
 H       -10.1357713013        3.1039509674        4.8966654218
 H        -6.8900673389        2.5089480975        0.5191455935
 H        -5.7830536626        3.7024430195        1.0863460109
 H        -7.7839789087        4.1429087953       -1.3692029965
 H        -6.0942152775        3.6866852777       -1.6184024928
 H        -7.2378927461        9.3742119527       -0.2268363923
 H        -6.4714542202        7.9496476011        0.7094658114
 H        -7.8160920973        9.5603390356        2.2092130428
 H        -8.3401150859        7.9038703678        2.2625319437
 H       -11.5367779548       11.5467328282       -1.7815669135
 H       -11.9320972554        9.9684790254       -1.0607702894
 H       -11.2184527588       10.0014731018       -2.7047494169
 H       -11.9804637489       10.7819583013        1.3153698721
 H       -11.5047067467       12.2639136478        0.6077908047
 H       -10.9468693030       11.8784063690        2.2062822876
 H        -7.8580356235       11.5302813568        0.0961370233
 H        -8.0849030500       11.4392163462        1.7873881161
 H        -8.8918001143       12.7797442423        0.9731412672
 H        -6.6476201681        8.8770376967       -2.4272363556
 H        -5.3277134150        7.5796415094       -2.8722859826
 H        -5.4056712334        8.2714903084       -1.2238989477
 H        -8.4923643854        7.0794606586       -3.3231189474
 H        -8.4921183919        5.5285918719       -2.6444430328
 H        -7.0047413983        5.9524311195       -3.6107420989
 H        -6.3439341429        4.7448557361        4.3948718266
 H        -7.2138633761        5.9451720517        3.5461085484
 H        -6.0297615723        5.1810182034        2.6920352514
 H        -7.2003114626        2.5255788397        4.2455880929
 H        -6.5188482447        2.2961983757        2.5943220414
 H        -8.1989781793        1.8273004382        3.0521763279
 H       -13.8431034923        1.5818477485       -0.2010878098
 H       -12.7424034656        2.9514694571       -0.5705664840
 H       -14.2402672479        3.3404315931        0.0989466651
 H       -14.1771471696        1.7002239586        3.3437999321
 H       -15.2296757935        1.7994422644        1.8827425915
 H       -14.5445889993        3.3011225102        2.6347568885
 H        -9.6697592516       -3.0073319234        1.3668327583
 H        -8.2961181601       -2.3545811783        2.1757910608
 H        -8.1428534342       -3.7453608560        1.1200127003
 H        -6.3705922398       -0.5017017621       -0.3628025771
 H        -6.0406256678       -2.2136772594       -0.2847882753
 H        -6.2209515499       -1.2483629607        1.1802237378
 H       -11.8859433453       -1.8360999695       -2.4528346018
 H       -11.3368544388       -2.8241470471       -3.7188218996
 H       -13.0147696090       -2.1190346420       -3.7749767120
 H       -10.7978953456       -1.8968693137       -5.7694110208
 H       -10.8623771385       -0.2628720231       -6.3484319237
 H       -12.4032496195       -1.2933015650       -6.0477868510
 Na      -10.5334383786        6.3153535178        1.3538202944
