117

 C       -12.8682036520        1.5868081914       -4.8909146180
 C       -12.3867603100        0.5892251278       -3.7732701119
 O       -12.6884387194        0.8033216635       -2.6699790591
 C       -11.5239153364       -0.7643441339       -4.1558605648
 C       -10.1404546593       -0.4945523047       -3.4542869675
 O       -10.0289877521        0.3726980248       -2.6508160766
 C        -9.0002157650       -1.5303969396       -3.6929217993
 C        -8.0460632588       -1.6582839336       -2.4414817116
 C        -8.6997429802       -2.3251205698       -1.1539784169
 O        -9.6385332139       -3.0330693415       -1.2373342715
 C        -8.1321845166       -1.7277805241        0.3157863985
 C        -8.9301116738       -0.3613982199        0.6739430121
 O        -8.3308267966        0.6925758807        0.6542117375
 C       -10.4415582151       -0.5536536016        0.8155380025
 C       -11.3353369830        0.6333138652        0.5669629966
 C       -12.1465340909        1.0174138400        1.8241445211
 O       -12.1653114325        0.3391385655        2.8193241972
 C       -12.9883601411        2.3597933029        1.6079813627
 C       -12.0919618151        3.4948995215        2.0569086757
 O       -11.6257521216        4.3629691741        1.2866962948
 C       -11.6910063908        3.6996417488        3.6146812483
 C       -10.2227874933        3.3597529719        3.8804108636
 C        -9.2699925484        4.4061727618        3.3644770028
 O        -9.6245108682        5.5927165502        3.2213370239
 C        -7.8209762766        4.0656648024        2.9473906270
 C        -7.8578771169        4.1302156473        1.3600632103
 O        -8.8127612019        4.7231538538        0.8522095255
 C        -6.7143283040        3.5722160530        0.4575786397
 C        -6.8272010979        4.2445511051       -0.9376200677
 C        -6.3556954915        5.7645741228       -0.9089628577
 O        -5.4448910267        6.0429058673       -0.1091193113
 C        -7.0972820236        6.8386060480       -1.6947739980
 C        -8.0619699331        7.4237633850       -0.5726215950
 O        -9.1649262829        6.9644656733       -0.4499358128
 C        -7.3983678310        8.4111568971        0.4307371026
 C        -8.2480962510        8.7647076015        1.6431805942
 C        -9.6274952620        9.3342467077        1.2717392361
 O       -10.6289788258        8.6269949045        1.4512955951
 C        -9.7602878297       10.7578184668        0.5619422638
 C        -9.9002994829       10.4784260903       -1.0174490907
 O        -8.8940874681       10.1911093814       -1.5923957296
 C       -11.2658247817       10.4789228675       -1.6954304187
 C       -11.0240410742       11.5460064256        1.0644088866
 C        -8.5829958060       11.6885869806        0.8080687340
 C        -6.0519986314        7.8734687698       -2.0848665977
 C        -7.8267666974        6.3268520839       -2.9337555820
 C        -6.8454742260        5.1095811434        3.4774968105
 C        -7.2865646211        2.5976042347        3.3532483257
 C       -13.3802469391        2.5560612925        0.1316040441
 C       -14.2427529800        2.4260141640        2.4998031275
 C        -8.5654477023       -2.8618620107        1.2871536004
 C        -6.6751142629       -1.4631031701        0.4326736803
 C       -12.0888444368       -2.0245792820       -3.4543877083
 C       -11.4065896815       -0.9062086683       -5.6616086362
 H       -12.1390386334        1.6206147556       -5.7569097984
 H       -12.9130171828        2.5281578427       -4.3785561588
 H       -13.8186598905        1.1432547095       -5.2278242118
 H        -8.4336432816       -1.1448610046       -4.5067573849
 H        -9.2802453482       -2.5225113618       -3.9454085357
 H        -7.7186915294       -0.5879179484       -2.2080827303
 H        -7.1295889557       -2.1643426186       -2.5875313471
 H       -10.6447914707       -0.9862057178        1.8287377518
 H       -10.8293993946       -1.3233655518        0.1502861211
 H       -12.0645534073        0.1995115957       -0.2412348538
 H       -10.7854344301        1.4043683993        0.1106448248
 H       -12.3460975794        3.0321541483        4.2624034126
 H       -11.9615290814        4.7921310018        3.8307559920
 H        -9.8166744784        2.4978756140        3.2583879797
 H        -9.9502582051        3.1788055908        4.9247352260
 H        -6.7308278148        2.4393880706        0.3977279032
 H        -5.7618353388        3.8282141171        0.9122714735
 H        -7.7698778383        4.3301796046       -1.4825707987
 H        -6.1148376957        3.6971927576       -1.6815394793
 H        -7.2135943477        9.2363026576       -0.2151435030
 H        -6.4739617333        7.8158848039        0.6561067262
 H        -7.7444046654        9.4912324209        2.2053575034
 H        -8.2822255845        7.8277102908        2.2497373290
 H       -11.6451945492       11.4792739532       -1.6254270476
 H       -11.9877438297        9.7183430531       -1.2565627391
 H       -11.1043252245       10.2434122064       -2.6887702906
 H       -12.0378925819       11.0272577898        0.9005928985
 H       -11.2122349048       12.5465545137        0.6490502351
 H       -10.9936008936       11.7206263446        2.1600944225
 H        -7.9787997671       11.8560255093       -0.0567419144
 H        -7.8880630549       11.3043336175        1.5343708325
 H        -8.9868613352       12.6450666478        1.2076505247
 H        -6.4723027729        8.6704888153       -2.7251924095
 H        -5.2243485052        7.2402072025       -2.5280772734
 H        -5.6328905619        8.2392366599       -1.1510439657
 H        -8.3282204389        7.1480842797       -3.4884777383
 H        -8.6475586785        5.6462983252       -2.7385436053
 H        -7.0453791730        5.8476033372       -3.4834440177
 H        -6.6635160931        4.9469047815        4.5204098223
 H        -7.2969787278        6.0962281175        3.3913562880
 H        -5.9605152009        5.2254526593        2.8786370654
 H        -7.1656965828        2.6054788504        4.4144343325
 H        -6.3497297265        2.5613353067        2.8865085437
 H        -7.9244366731        1.7787611141        2.9793854230
 H       -13.8787503138        1.6565632498       -0.2348905297
 H       -12.6021025491        2.7614379815       -0.5454980796
 H       -14.0212598170        3.3981413150        0.0511897535
 H       -13.9956027371        1.7701847333        3.3900459555
 H       -15.1718994234        2.0580004236        1.9779211694
 H       -14.3885292828        3.4362684541        2.7333760982
 H        -9.6392104436       -2.9558847743        1.1840325260
 H        -8.3733047371       -2.6561420313        2.3628881486
 H        -8.1884475599       -3.8230267102        1.0677869457
 H        -6.3395516152       -0.5515524303       -0.0514807943
 H        -5.9969049321       -2.1856200504        0.0574302834
 H        -6.4220169014       -1.2332259147        1.5262180799
 H       -12.1274201218       -1.9366963226       -2.4148296071
 H       -11.4070817134       -2.8455507407       -3.5860524863
 H       -13.0835195406       -2.1682428027       -3.8098008825
 H       -10.5731283750       -1.5499485664       -5.9687019478
 H       -11.1155212644        0.0987443788       -5.9407818277
 H       -12.3449002566       -1.2356110210       -6.1035607010
 Na      -10.5615989731        6.2714942424        1.4239431571
