117

 C       -13.1000816064        1.3171856337       -5.2093680059
 C       -12.4041152353        0.7546037926       -3.8848225970
 O       -12.5445779672        1.2193424551       -2.8064357053
 C       -11.5286793776       -0.5299020447       -3.9761566534
 C       -10.2208426652       -0.4045237537       -3.2361532292
 O        -9.9029685916        0.6314124146       -2.6624097311
 C        -9.3332577178       -1.6047622818       -3.2735691380
 C        -8.2578489117       -1.6487280334       -2.1039752076
 C        -8.8649841414       -2.3215686858       -0.8910053428
 O        -9.6984748232       -3.1943313326       -1.0201681690
 C        -8.2722541649       -1.9714654338        0.4663878232
 C        -9.0000125758       -0.6678970781        0.7643411849
 O        -8.3576956691        0.3896771797        0.9393765878
 C       -10.4839073292       -0.7332053687        0.9523796393
 C       -11.1931729518        0.5508326102        0.5784001548
 C       -12.2075684907        1.0215478830        1.6701454259
 O       -12.3856226230        0.3238577258        2.6538688351
 C       -12.9777725689        2.4013685765        1.6159098271
 C       -12.0969326339        3.6300046282        2.1170741079
 O       -11.6691322486        4.4861596717        1.3016267079
 C       -11.6332394791        3.5331115664        3.5421597557
 C       -10.1380255386        3.2903155702        3.5756160694
 C        -9.1556904013        4.5189054027        3.3961794563
 O        -9.5311767239        5.6641422374        3.6320328559
 C        -7.7074275614        4.2401917962        2.8858498565
 C        -7.8625328104        4.2491138638        1.3393376217
 O        -8.7656954723        4.8065902402        0.7845064869
 C        -6.7509450752        3.5518022053        0.5257339429
 C        -6.6433470635        4.0586763404       -0.8491764506
 C        -6.2977640230        5.5671214160       -0.8024175072
 O        -5.5244227852        6.0169311642        0.0223877908
 C        -7.0965368984        6.6908236929       -1.6570163689
 C        -8.0691631127        7.4007865048       -0.6614988839
 O        -9.2534226150        7.1882268705       -0.6715851721
 C        -7.3768900654        8.3528104787        0.3241343086
 C        -8.4031732812        8.6612813229        1.4835298185
 C        -9.7051259489        9.3322392752        1.0281946214
 O       -10.8031997959        8.7249905184        1.0987997769
 C        -9.7148922322       10.7929483294        0.4594286033
 C        -9.8199965485       10.4354441970       -1.1155897266
 O        -8.8175678281       10.3506650349       -1.7559161384
 C       -11.2456905270       10.1839419484       -1.7765721064
 C       -10.8506631518       11.7006233580        0.9716993004
 C        -8.3704596316       11.5044258433        0.6951081534
 C        -6.0241308468        7.6958589428       -2.2623713938
 C        -7.8570066613        6.0527483373       -2.8493251242
 C        -6.7698899228        5.5090368110        3.0917494807
 C        -7.0823376204        2.9801843928        3.4495936367
 C       -13.5154629256        2.7019173662        0.1984283732
 C       -14.2471994024        2.2404785176        2.5785351523
 C        -8.4945224578       -3.1253384725        1.4310543012
 C        -6.7733809666       -1.6365835066        0.4528435329
 C       -12.3699265593       -1.6307209870       -3.2750302973
 C       -11.0549768707       -0.9222502112       -5.4280703900
 H       -12.2392627035        1.8265566481       -5.6194410313
 H       -13.8399998713        2.0772200328       -4.9165445100
 H       -13.5125696775        0.5155286965       -5.8267386800
 H        -8.6537865005       -1.5439675260       -4.1176409489
 H        -9.8188510694       -2.6161411705       -3.2616306227
 H        -7.8817042257       -0.5876012725       -1.8499782128
 H        -7.4359384661       -2.2333553509       -2.4446599170
 H       -10.6681225557       -0.7981475782        2.0460800904
 H       -10.9735336172       -1.5465407650        0.4764094494
 H       -11.7869468389        0.5691429395       -0.4382021688
 H       -10.4436581749        1.2856374510        0.5217060796
 H       -12.1707246113        2.6821811485        4.0431228397
 H       -11.9825890502        4.4324812254        4.0840753497
 H        -9.7726272952        2.4944963650        2.8613825124
 H        -9.8452987260        2.8843675283        4.5624252192
 H        -7.1070453983        2.5208708656        0.3366468890
 H        -5.9043469513        3.5120842824        1.1401779465
 H        -7.6098835118        3.9316651206       -1.4265247022
 H        -5.8429474155        3.5920941223       -1.5144669942
 H        -7.0718544220        9.1528999433       -0.3263379140
 H        -6.4568087939        7.7385514202        0.6151538855
 H        -7.7997430107        9.2097481120        2.1551455914
 H        -8.7636585470        7.7073370820        1.8993821452
 H       -11.6815044320       11.1845368524       -1.9181705594
 H       -11.9027528962        9.5251218613       -1.1503584540
 H       -11.1651050908        9.7552757558       -2.7434626146
 H       -11.8077146268       11.1458884306        0.9915238012
 H       -11.1099145688       12.4940043316        0.2773194099
 H       -10.6970595793       12.1618688178        1.9256043867
 H        -7.6459303683       11.2874824587       -0.0815714477
 H        -7.9252338855       11.4298463279        1.7031170036
 H        -8.5487629283       12.5823862496        0.4878775610
 H        -6.5388012113        8.6507154598       -2.4416419043
 H        -5.7000087810        7.4189031820       -3.3044063120
 H        -5.1992554753        7.7897175447       -1.5362820051
 H        -8.3298692751        6.9272499840       -3.4009463936
 H        -8.6296612009        5.3098951136       -2.5104433939
 H        -7.1406188325        5.5975190790       -3.5378324712
 H        -6.6343620328        5.7683188348        4.1328234516
 H        -7.1395178310        6.3677596050        2.5407319970
 H        -5.8009457171        5.2894172021        2.6898890936
 H        -7.1098121123        3.0490321073        4.5414167137
 H        -6.1120954601        2.8166659573        3.1678715996
 H        -7.6999011733        2.2159143316        2.9653297914
 H       -14.0760282761        1.8557951218       -0.2240176059
 H       -12.6666267563        2.8124737243       -0.5494161744
 H       -14.1821358298        3.5933970555        0.2622533711
 H       -13.8993006816        2.0582452187        3.6002338060
 H       -14.9133118060        1.5718728018        2.1354213016
 H       -14.8303048722        3.1553417578        2.5609366770
 H        -9.4544182680       -3.5737820932        1.1467244074
 H        -8.4608595931       -2.8200019388        2.4702076433
 H        -7.7872629129       -3.9051600375        1.3861889632
 H        -6.2947789772       -0.8814998562       -0.1641151380
 H        -6.2783091044       -2.5341879966        0.2052266425
 H        -6.4176286146       -1.2660324297        1.4844678546
 H       -12.6291238573       -1.3692801332       -2.2498518003
 H       -11.8359006275       -2.6428408478       -3.2618697397
 H       -13.3192331182       -1.7390687556       -3.8522960453
 H       -10.8494685165       -2.0022350025       -5.3609691264
 H       -10.1936989066       -0.3528303043       -5.7179304178
 H       -11.8302274487       -0.7130952964       -6.1775795825
 Na      -10.3481287631        6.4006626730        1.2706276717
