117

 C       -13.2124940817        1.3786156982       -5.0761012385
 C       -12.2690775025        0.8819972486       -3.9556277862
 O       -12.2373693630        1.5833545555       -2.9464851985
 C       -11.5401667973       -0.4850891851       -4.0062114014
 C       -10.2585924019       -0.4785981898       -3.1647869513
 O       -10.0573382175        0.4770865736       -2.3574329948
 C        -9.2944899053       -1.6037453218       -3.2255005358
 C        -8.3019762701       -1.6355185180       -2.0708315443
 C        -8.8000196816       -2.4106129164       -0.7950746955
 O        -9.6829457747       -3.2523600128       -0.9719875620
 C        -8.2835143684       -1.9977824240        0.6517121240
 C        -9.0095068353       -0.6211679432        1.0759263358
 O        -8.3945234888        0.4061313298        1.4911311953
 C       -10.5090708236       -0.5983128814        1.1080131777
 C       -11.0251849790        0.8278381321        0.9339387500
 C       -12.1782513239        1.2233569339        1.9243909915
 O       -12.4628626752        0.5709606002        2.9012633248
 C       -13.0593619069        2.5079490729        1.5131059081
 C       -12.2110357958        3.7216533745        2.0374880805
 O       -12.1725971228        4.7299733754        1.3364953953
 C       -11.5074328957        3.5612700244        3.4506658813
 C       -10.0098050438        3.2428360872        3.3841931214
 C        -9.1001649961        4.4474383809        3.2358776661
 O        -9.5709811912        5.5586298006        3.3073353499
 C        -7.5714922139        4.3380110033        2.8564108561
 C        -7.6833405722        4.1809068001        1.2422659665
 O        -8.5017096531        4.8041523063        0.6820203437
 C        -6.5878015830        3.3532074999        0.4796414930
 C        -6.5007433060        3.8917672622       -0.9320340172
 C        -6.3601566168        5.4424273431       -0.7995605970
 O        -5.6459917342        5.8665535227        0.0619706783
 C        -7.1022654146        6.4450366887       -1.8207072574
 C        -8.0677060720        7.2244027651       -0.7786184198
 O        -9.2244826317        6.9626767665       -0.6774731455
 C        -7.3667988160        8.3390333071        0.0986401131
 C        -8.3141200149        8.6075009342        1.2560333690
 C        -9.6181056912        9.3795887848        0.9091753937
 O       -10.6983727908        8.7878264237        1.2478608605
 C        -9.7063441114       10.7929196216        0.3481377061
 C        -9.7729433875       10.4718918441       -1.2862585523
 O        -8.7133177761       10.5903244909       -1.8748343902
 C       -11.0330005685        9.8115079443       -1.9005729150
 C       -11.0671737198       11.3970659472        0.8298545766
 C        -8.4543846195       11.6967397584        0.5346396807
 C        -6.0478719802        7.3978999038       -2.3768829225
 C        -7.8307436686        5.7602398503       -3.0322331388
 C        -6.8831641577        5.6787192426        3.1296664409
 C        -6.7983617155        3.1211338003        3.5313193202
 C       -13.3981281362        2.6603094816       -0.0398566217
 C       -14.3276055077        2.4705874471        2.3364468120
 C        -8.8323985946       -3.0441106782        1.8011109409
 C        -6.7872121389       -1.9660047423        0.5886552219
 C       -12.5488317413       -1.2889248451       -3.1953265302
 C       -11.3015530962       -0.9672894715       -5.4353613481
 H       -12.5604669774        1.5387454377       -5.8600356488
 H       -13.6594332982        2.3356233812       -4.7450786124
 H       -14.0562123322        0.7237858677       -5.1895681566
 H        -8.7060195215       -1.5932058826       -4.1945952573
 H        -9.8707601217       -2.6203475031       -3.2354204898
 H        -8.2020020228       -0.5137603685       -1.8105880811
 H        -7.3742127601       -2.0748641424       -2.2650926951
 H       -10.7080332436       -0.8933241120        2.1549138968
 H       -11.0738610662       -1.1211778739        0.3888598424
 H       -11.3957434053        1.0937469195       -0.1457260421
 H       -10.2524398469        1.5163972669        1.0915259558
 H       -12.0728946610        2.8013150098        3.9709621303
 H       -11.6715120774        4.4472965070        3.9742914380
 H        -9.6241994973        2.5323288033        2.6240131098
 H        -9.7196219788        2.7745815158        4.3065090206
 H        -7.0575986363        2.3668667665        0.5204802658
 H        -5.6516274345        3.3255510601        0.9281067782
 H        -7.2877407969        3.6482750417       -1.6843875813
 H        -5.5790279095        3.4131788505       -1.2950198021
 H        -7.2151022815        9.0957030485       -0.6425972864
 H        -6.3684110140        7.8000820545        0.1798428909
 H        -7.7656848551        9.1590771727        2.0504330507
 H        -8.6303771853        7.6447893461        1.7135958007
 H       -11.8924807308       10.5207977006       -1.8223311213
 H       -11.2362750424        8.9118871569       -1.3736764593
 H       -10.8268190588        9.6164850793       -2.9749022769
 H       -11.9040956999       10.7352278372        0.7902911247
 H       -11.3320235229       12.2879172837        0.2923882349
 H       -10.9969342322       11.7000003603        1.8289706620
 H        -7.5015153312       11.1998064730        0.6521473576
 H        -8.5994608933       12.3440585004        1.4137345252
 H        -8.3062617277       12.3718798877       -0.2908897439
 H        -6.4478093408        8.1979615163       -2.9668917060
 H        -5.3494412443        6.8373775624       -2.9861989708
 H        -5.4419261577        7.7930014916       -1.5620427438
 H        -7.9650849754        6.3766316798       -3.9050102733
 H        -8.7158225649        5.2912929616       -2.6108764732
 H        -7.2032048927        4.9661262785       -3.3171822970
 H        -6.1126986010        5.5713259502        3.9311880983
 H        -7.6169523079        6.4517190699        3.4470489605
 H        -6.2636135538        5.9734429779        2.2805997309
 H        -7.2958081772        2.9490679204        4.5698710208
 H        -5.7696678753        3.3406204091        3.7568824424
 H        -6.8137043644        2.2172348205        2.8999419032
 H       -14.0723955949        1.9025631035       -0.4270796910
 H       -12.4225080804        2.5883992584       -0.6564093550
 H       -13.9596047433        3.6084235768       -0.2120909397
 H       -14.0910821666        2.3317982404        3.4062486672
 H       -14.9458436709        1.7279531403        1.9683055848
 H       -14.7661039172        3.5247258472        2.3161779220
 H        -9.9095790056       -2.8193293285        2.0709240031
 H        -8.2242842220       -2.7819739780        2.6726858585
 H        -8.6224816406       -4.1205870745        1.7214411431
 H        -6.3993201740       -1.2381127509       -0.1243056039
 H        -6.4061321687       -2.9180713913        0.2730730153
 H        -6.2441489745       -1.8201640467        1.5685400485
 H       -12.6825918635       -0.8467332569       -2.2136398058
 H       -12.4435372930       -2.3905121933       -3.1871982772
 H       -13.5168594418       -1.2916102167       -3.7207611870
 H       -10.5291993765       -1.7582562231       -5.4515420996
 H       -10.9102100707       -0.1387325697       -5.9769994015
 H       -12.2042296056       -1.2780378097       -5.9934610450
 Na      -10.4834577088        6.4292051665        1.3292330443
