117

 C       -13.1356686621        1.3697935573       -5.0645640292
 C       -12.2587569445        0.9968133373       -3.8252202384
 O       -12.1639859660        1.8261607772       -2.9712909344
 C       -11.5987161715       -0.4072641751       -3.7958560743
 C       -10.3131079002       -0.4262013154       -2.9354292940
 O       -10.0358429499        0.4520597927       -2.1733539084
 C        -9.3976701164       -1.6745865731       -3.0753153954
 C        -8.3121632297       -1.6320008011       -1.9772245792
 C        -8.8733904709       -2.3401024994       -0.7470029726
 O        -9.7450441879       -3.1692619014       -0.8052880392
 C        -8.3967997350       -1.9693920152        0.6645785088
 C        -8.9707444969       -0.6069996051        1.1995527470
 O        -8.2062123333        0.2848483167        1.4253196690
 C       -10.4772623568       -0.5216243417        1.2947690392
 C       -11.0760944588        0.8371951693        0.8132409298
 C       -12.1488552112        1.3419299412        1.8183390840
 O       -12.3768442065        0.6669822137        2.8176759241
 C       -12.9498675745        2.6295911236        1.4851272990
 C       -12.1669561782        3.8693676119        2.0402819315
 O       -12.0425862421        4.8073640792        1.2981310265
 C       -11.5017139653        3.6815726166        3.4276841008
 C       -10.0592066674        3.2178382442        3.4573919904
 C        -9.0858395629        4.4423546420        3.2256091760
 O        -9.5747982062        5.5582978285        3.1937225340
 C        -7.5887252820        4.2823499816        2.8747367112
 C        -7.6475213809        4.1359730079        1.3412217660
 O        -8.6021948416        4.6619419997        0.7243393482
 C        -6.6011379315        3.3692100444        0.5671830186
 C        -6.5844173247        3.9045086786       -0.8854155382
 C        -6.3383774555        5.4125759516       -0.8459269213
 O        -5.5725111783        5.8865700216       -0.0071952159
 C        -7.0487648028        6.4454375787       -1.8877573284
 C        -7.9543472847        7.1519397006       -0.9213383280
 O        -9.1274161182        6.7762219136       -0.7855178760
 C        -7.4116174570        8.4496611701       -0.0607377254
 C        -8.1999972339        8.7781046555        1.1863174248
 C        -9.6424100222        9.2371575229        0.9144805541
 O       -10.6189019866        8.6585995375        1.2509029800
 C        -9.7816600497       10.6804771044        0.2629069230
 C        -9.7295331730       10.3892230321       -1.3287853935
 O        -8.7095211807       10.6222478767       -1.9028637855
 C       -10.9686374860        9.6667178753       -1.9732654208
 C       -11.0817682972       11.3806423231        0.5741213764
 C        -8.6471308980       11.6232324669        0.6886269261
 C        -5.9008838382        7.2846718077       -2.6436989930
 C        -8.0189418280        5.6469456629       -2.8613320844
 C        -6.7944231035        5.5926487212        3.1232562317
 C        -6.9930736695        3.0615921392        3.5364802230
 C       -13.3356965067        2.7856459625       -0.0441173173
 C       -14.3728052798        2.6677641250        2.3229619049
 C        -8.9013586549       -3.2122657691        1.5264827631
 C        -6.8725965762       -1.8209363025        0.8770074586
 C       -12.7116680196       -1.3985538067       -3.2489680879
 C       -11.2777289774       -1.0228011386       -5.2443131784
 H       -12.5947101790        1.1561266917       -6.0437751709
 H       -13.3362708011        2.4044669797       -4.9342129058
 H       -14.1097526191        0.9099049267       -4.9036779457
 H        -8.8989695606       -1.5754495757       -4.0071483361
 H        -9.8717128308       -2.5878771566       -3.1126834764
 H        -8.1330697849       -0.6107295735       -1.7967984196
 H        -7.3231528505       -2.1919478189       -2.2096918392
 H       -10.8602744669       -0.6786551385        2.3006880807
 H       -10.9940238451       -1.2126503416        0.5887876223
 H       -11.5788476862        0.8218895414       -0.0954737108
 H       -10.2310067754        1.5636864849        0.6619783025
 H       -12.1200908723        2.8740850694        3.8962369912
 H       -11.7339153262        4.6198576430        4.0622748272
 H        -9.8766300130        2.3225337924        2.8352497687
 H        -9.8760339183        2.8669859657        4.5267311247
 H        -6.9062602669        2.3122911936        0.6464112127
 H        -5.6260897637        3.5839031845        1.1159698560
 H        -7.5585354621        3.7485578696       -1.3861399043
 H        -5.8531250744        3.2736314481       -1.4536443718
 H        -7.5093851194        9.1641925635       -0.9003208879
 H        -6.3861176018        8.3065145598        0.0432164809
 H        -7.6365991486        9.5377887688        1.6934664471
 H        -8.2056703647        7.9409430218        1.8826023223
 H       -11.8886706843        9.9973974800       -1.5442554242
 H       -10.8323094948        8.5717739544       -1.6808254119
 H       -10.9663095965        9.7643114209       -3.0187227617
 H       -11.9433711733       10.6730501791        0.4896904126
 H       -11.1923791704       12.2423489424       -0.0962599621
 H       -11.1704222568       11.7728041493        1.6179364724
 H        -7.7029498041       11.4558866885        0.1437443078
 H        -8.4144908907       11.6392652375        1.7515032197
 H        -8.9761457555       12.6835579499        0.5011667096
 H        -6.2301382250        8.3558284051       -2.8501594599
 H        -5.5855715548        6.7365225823       -3.5769406921
 H        -4.9606705183        7.3771906267       -2.0495507683
 H        -8.4849134080        6.4766563711       -3.4541647168
 H        -8.7814072870        5.0339782211       -2.3527563362
 H        -7.4141230473        5.0497721998       -3.6081488364
 H        -6.5009585988        5.7332122759        4.1330754422
 H        -7.5375066301        6.3300687232        2.9225245451
 H        -5.8908522915        5.6856796228        2.5311366168
 H        -7.3755093740        2.9612937222        4.4979613049
 H        -5.9167428393        3.1489382293        3.5821333177
 H        -7.2458899113        2.0967748579        3.0654131302
 H       -13.8611980997        1.8294999056       -0.3052322275
 H       -12.5301134052        2.9381894223       -0.7441907638
 H       -14.0935447209        3.5444673708       -0.2248403340
 H       -14.2246402275        2.4524593996        3.3969908031
 H       -14.9003350241        1.7242358473        1.9932302559
 H       -14.8472478907        3.5776636785        2.2731871844
 H        -9.8751222025       -3.5162736243        1.2886469951
 H        -8.8469010896       -3.1864621893        2.6262577671
 H        -8.2140738351       -3.9588585095        1.1979544454
 H        -6.4539655505       -1.1757341076        0.0927249923
 H        -6.2595781387       -2.7321017062        0.9090945163
 H        -6.6668937131       -1.3979873420        1.8561782409
 H       -13.1655200375       -1.0089465614       -2.3328402790
 H       -12.3984582799       -2.4171463185       -3.1049528142
 H       -13.5015064629       -1.5843475592       -3.9719212150
 H       -11.4720019042       -2.0845839050       -5.2802127464
 H       -10.2556754169       -0.8752868635       -5.7200200214
 H       -12.0355888551       -0.5830356759       -5.8713406681
 Na      -10.4322162830        6.4550936122        1.1861109054
