117

 C       -13.1150638983        1.4014093557       -5.1162994289
 C       -12.2796605668        1.0512667353       -3.8437745107
 O       -12.0689534672        1.8540701085       -2.9594654987
 C       -11.7111621541       -0.4163227813       -3.7350274593
 C       -10.3446207305       -0.4428315062       -2.8635256987
 O       -10.1088027116        0.5011765593       -2.0454451962
 C        -9.3503111101       -1.5329732873       -3.0569687524
 C        -8.2740888216       -1.6980399878       -1.9439607121
 C        -8.8866429949       -2.3597941668       -0.6941717657
 O        -9.8567100242       -3.1099699293       -0.8609972888
 C        -8.3211790350       -2.0772529330        0.7882222557
 C        -9.0151492017       -0.6555497693        1.1494718381
 O        -8.3584199796        0.3868571651        1.3946868037
 C       -10.4543592514       -0.5675898280        1.3270633953
 C       -11.0823113350        0.7737180246        0.7623633555
 C       -12.1744378541        1.3302461019        1.7579580850
 O       -12.3522754643        0.7426967213        2.8104187992
 C       -12.9650649311        2.6360041426        1.4567061894
 C       -12.1097418093        3.8438013270        2.0025168193
 O       -11.8772456549        4.8262355315        1.3116516183
 C       -11.5961242116        3.7325341405        3.4796303160
 C       -10.0879662315        3.3487391827        3.5230454450
 C        -9.1782361385        4.5436106380        3.2863813652
 O        -9.5599593091        5.6901230328        3.2699342948
 C        -7.6462693999        4.2195879544        2.8880372020
 C        -7.7369642033        4.1111093641        1.3194928956
 O        -8.6707327780        4.5443381651        0.7187607591
 C        -6.5687496035        3.4207445278        0.5016385691
 C        -6.5521048744        3.8956627482       -0.9060726082
 C        -6.2631067150        5.3984590533       -0.8983714563
 O        -5.4964166951        5.8656958433       -0.0881316802
 C        -7.0344954841        6.3730358499       -1.8868917190
 C        -8.0101061386        7.2218790793       -0.9851653967
 O        -9.1339115611        6.8653746229       -0.8099536093
 C        -7.4286424005        8.4282607741       -0.1754054370
 C        -8.1915888178        8.7338819721        1.1224233118
 C        -9.6008713505        9.3344660841        0.9322200351
 O       -10.5621177384        8.6474302983        1.2236826851
 C        -9.8047003746       10.7292120809        0.2199953261
 C        -9.7120470503       10.3465898742       -1.3345587990
 O        -8.7353561995       10.6143701841       -2.0379740657
 C       -10.8715952716        9.6351150701       -1.9824660701
 C       -11.2063628777       11.3145109687        0.5197496767
 C        -8.6819034942       11.6951176966        0.7064251628
 C        -6.0392252567        7.1523199975       -2.6504088103
 C        -7.9274554337        5.6507216518       -2.8941436412
 C        -6.7521257073        5.5077140533        3.2191140373
 C        -7.0919800774        2.9528307566        3.5598840730
 C       -13.3614655216        2.9210525202        0.0312610472
 C       -14.3008911209        2.6883005433        2.2234310131
 C        -8.8627864404       -3.2018239839        1.7690355330
 C        -6.7746008856       -1.9068031262        0.8311947409
 C       -12.7099933670       -1.4120654857       -3.1881863495
 C       -11.2957564697       -0.9814875187       -5.1512756218
 H       -12.4960071700        1.2567477120       -6.0067677317
 H       -13.4528029564        2.4392219447       -4.9698597887
 H       -14.0330093986        0.8025133431       -5.0298921752
 H        -8.8468766168       -1.4310638811       -3.9959539544
 H        -9.8513604853       -2.4714184998       -3.1521707844
 H        -7.8644879529       -0.7357978902       -1.6618892452
 H        -7.4934005023       -2.3556023764       -2.3036170974
 H       -10.6077255112       -0.4538145154        2.4257927013
 H       -11.0354453265       -1.4007810178        0.9799263072
 H       -11.6091163597        0.8161757113       -0.2863054893
 H       -10.2397865616        1.4499035643        0.6696999366
 H       -12.2237711425        3.0036288727        4.0076553831
 H       -11.8386530986        4.7025976833        3.9148836436
 H        -9.8770937962        2.5747540494        2.7509695324
 H        -9.8181380744        2.8803210450        4.4637792403
 H        -6.8538917679        2.3118135248        0.4242359864
 H        -5.6742000564        3.5932976398        1.0691123515
 H        -7.4627616265        3.5616488799       -1.3694637275
 H        -5.7802631239        3.3592512689       -1.4089114081
 H        -7.2880384451        9.1619058285       -0.9391103857
 H        -6.4422401649        8.0411931496       -0.0210190050
 H        -7.4854142147        9.1899735302        1.7603857724
 H        -8.3915397832        7.7310798414        1.6398974117
 H       -11.8345507554        9.8855229593       -1.5580255040
 H       -10.7014062118        8.5440320552       -1.8509592720
 H       -10.7999964298        9.8710261325       -3.0139685996
 H       -11.9702830991       10.4686328925        0.3919401056
 H       -11.4152142072       12.1625602238       -0.1751492821
 H       -11.4019922909       11.6824368262        1.5492758397
 H        -7.8586647558       11.7846022177        0.0254586552
 H        -8.2353030946       11.4715046525        1.6713458162
 H        -9.1314484226       12.6905448095        0.8810629483
 H        -6.4964059791        8.1227090274       -2.8532401025
 H        -5.6560285251        6.6226144696       -3.5632219035
 H        -5.1479830376        7.4105473561       -2.0637129728
 H        -8.4420456387        6.4998975177       -3.4036577578
 H        -8.6636932124        4.9877248934       -2.4008919683
 H        -7.3545215638        5.1455444964       -3.6430044794
 H        -6.8139986372        5.8154023332        4.2506977182
 H        -7.1698352000        6.3157212515        2.6458912886
 H        -5.7284878401        5.3049871911        2.9894535728
 H        -7.1034848283        3.0253968762        4.6765766214
 H        -6.1598796496        2.6754498993        3.1992551901
 H        -7.7984317067        2.0866473765        3.4316232632
 H       -13.7066118252        2.0309092776       -0.3813997898
 H       -12.4602881001        3.2516658484       -0.5211459774
 H       -14.0764293697        3.6654113682       -0.1491945117
 H       -14.1683244974        2.5411297876        3.3413642533
 H       -14.8570948269        1.8431468842        1.9750542237
 H       -14.7331040485        3.6919911321        2.1150747624
 H        -9.9313962104       -3.2162543201        1.5483091505
 H        -8.8259393289       -3.0680973570        2.8440144252
 H        -8.4773913816       -4.1406663809        1.4889758300
 H        -6.4561786005       -1.1079515376        0.1813197574
 H        -6.2486541264       -2.7646221171        0.5651576427
 H        -6.3885714254       -1.7726839771        1.9004256839
 H       -13.1601016737       -1.0932994417       -2.2953301679
 H       -12.3467156258       -2.4264182979       -3.0398082682
 H       -13.5239525701       -1.6077208128       -3.8867552025
 H       -11.2258406249       -2.0804764872       -5.2167248117
 H       -10.3096244939       -0.6280897828       -5.4380761338
 H       -12.0326705742       -0.6891285736       -5.9010630746
 Na      -10.3168871624        6.3004566496        1.1353293473
