117

 C       -13.0961662932        1.4307501282       -5.0830863930
 C       -12.2511430787        1.0648144544       -3.8772147380
 O       -12.0429770883        1.8498154735       -2.9701575223
 C       -11.6688645733       -0.4279151776       -3.7475438446
 C       -10.3632980004       -0.4163280843       -2.7525317619
 O       -10.2381146679        0.4845495895       -1.9446622407
 C        -9.2675739047       -1.4713469247       -3.0371911583
 C        -8.2628039307       -1.7154821517       -1.8696603749
 C        -8.9306565488       -2.3647249333       -0.6371941539
 O        -9.9204479476       -3.0345829409       -0.7848566635
 C        -8.4134212121       -2.0472183003        0.8012528330
 C        -9.0631558651       -0.6465408338        1.1940225396
 O        -8.3070197269        0.3405009498        1.2580171596
 C       -10.6036317015       -0.6239728194        1.3445971173
 C       -11.1883487182        0.6984135216        0.8158348782
 C       -12.2460682221        1.3013477021        1.7109540158
 O       -12.3683714937        0.8616050028        2.8221661514
 C       -12.9748078251        2.6863663492        1.4299119057
 C       -12.0787072083        3.8020265941        2.0133516371
 O       -11.7827949480        4.7553837800        1.2824966042
 C       -11.6229171357        3.8295794358        3.5076782361
 C       -10.1128707016        3.4811846035        3.5914891095
 C        -9.1897157299        4.6266286606        3.3390996992
 O        -9.5229000507        5.8089411202        3.4266148014
 C        -7.7808299430        4.1967537788        2.8775211315
 C        -7.8048301000        4.0302698728        1.3206440624
 O        -8.7017695748        4.4385760815        0.6351953216
 C        -6.5782139563        3.3311030400        0.5742938452
 C        -6.5262864885        3.8359897246       -0.9025024984
 C        -6.2460138088        5.3902270921       -0.9398321226
 O        -5.4342624969        5.9068034380       -0.2227858831
 C        -7.0952028268        6.3714470699       -1.9500162904
 C        -7.9865887337        7.2124780227       -0.9436000698
 O        -9.1994652028        6.9871620345       -0.8937710047
 C        -7.3268643034        8.3923399187       -0.2080172048
 C        -8.1929036858        8.6906005280        1.0093667937
 C        -9.5555435674        9.3051955296        0.8085016710
 O       -10.5959806954        8.6740508695        1.1852266947
 C        -9.8263922634       10.6854230935        0.1798328100
 C        -9.7052306794       10.3779592221       -1.3991641492
 O        -8.6828985600       10.6809983496       -1.9878359168
 C       -10.8417910596        9.5639929798       -1.9944315553
 C       -11.2412557006       11.1692367721        0.5272590910
 C        -8.7452448226       11.7762149925        0.5861456688
 C        -6.0514569098        7.2322488069       -2.6571090997
 C        -7.9461426557        5.5424867829       -3.0120964474
 C        -6.7619840031        5.2996780535        3.2921109824
 C        -7.2188428488        2.9167454829        3.5607421990
 C       -13.2266868959        3.0013957307       -0.0751418296
 C       -14.2826418074        2.6253217244        2.2742002490
 C        -8.7427625072       -2.9984146986        1.8854110861
 C        -6.8379995638       -2.0416884886        0.7727840554
 C       -12.7126004394       -1.3354123365       -3.0167758771
 C       -11.2454365542       -0.9215503504       -5.1353246783
 H       -12.3728302427        1.6047155182       -5.8162726797
 H       -13.6659149750        2.3536598727       -4.8205007871
 H       -13.8100159373        0.6384707204       -5.3101854371
 H        -8.6540110420       -1.2448298284       -3.9354776474
 H        -9.6558193938       -2.5213417042       -3.2977022662
 H        -7.8376991557       -0.7561939670       -1.4681008972
 H        -7.4926953566       -2.2928247805       -2.2649753092
 H       -10.9566718977       -0.7867549195        2.3909947882
 H       -11.0329758156       -1.3817074706        0.7279088897
 H       -11.5850334771        0.6280383674       -0.2592234860
 H       -10.3613459638        1.4076520118        0.7286760849
 H       -12.2348102369        3.2291446707        4.1404173916
 H       -11.8002217451        4.8157035513        3.7741399403
 H        -9.8559165337        2.6816549208        2.8892984277
 H        -9.8836355366        3.0936289387        4.5657598947
 H        -6.6569951562        2.2361427983        0.6205886673
 H        -5.7890343043        3.7252225953        1.1623764911
 H        -7.3628328915        3.3751635701       -1.4280896481
 H        -5.6474395287        3.4777529998       -1.3662496815
 H        -7.2548244217        9.1851903671       -0.9387460021
 H        -6.2623627797        8.0484511860       -0.0438996867
 H        -7.5057759930        9.4208410969        1.5252953735
 H        -8.2466929647        7.8701166603        1.7419546078
 H       -11.7991566390        9.8147899392       -1.5122407186
 H       -10.6449159895        8.5649473281       -1.8127063965
 H       -10.8370371745        9.7542480625       -3.1106615104
 H       -11.9727353533       10.3730946306        0.5043048314
 H       -11.5077466456       12.0018928022       -0.1771747951
 H       -11.3420245783       11.5938279313        1.5322648817
 H        -8.0308041778       11.8849047118       -0.2126004120
 H        -8.1274502848       11.5481865574        1.4512112849
 H        -9.1910871987       12.6951381990        0.8245323228
 H        -6.5426089815        8.0289804295       -3.1493935280
 H        -5.4231511278        6.6511066479       -3.2785440714
 H        -5.3929463770        7.7607376914       -1.9706915569
 H        -8.3741969581        6.1971591665       -3.7222522283
 H        -8.7133201082        4.9964320540       -2.4837459043
 H        -7.2990724011        4.8754262279       -3.5257368488
 H        -6.9960173583        5.6920609293        4.3019378106
 H        -6.6831495938        6.1593960306        2.6157799953
 H        -5.8436247058        4.7419375839        3.3569066816
 H        -6.8361758381        3.0171493843        4.6168730208
 H        -6.4494136216        2.4309907852        2.9103866604
 H        -7.9883031062        2.1790122791        3.7462900365
 H       -13.6404426875        2.1481457544       -0.5496951188
 H       -12.2666887777        3.2304625538       -0.5031107494
 H       -13.7718241766        3.8987372484       -0.3353659696
 H       -14.0980362374        2.3674480560        3.3009056472
 H       -14.8733982358        1.7911328038        1.9900868917
 H       -14.7441583710        3.6711758044        2.2921312490
 H        -9.8404216325       -2.9627037350        2.0684715600
 H        -8.4090805361       -2.5655906539        2.7911433720
 H        -8.4141186099       -4.0510248418        1.7500468917
 H        -6.4011071523       -1.1715782613        0.2910449203
 H        -6.5276720573       -2.9183198971        0.1831037586
 H        -6.3723334944       -2.2627808851        1.7035409168
 H       -12.9971334743       -0.9068841348       -2.0656663901
 H       -12.4178740420       -2.3640478374       -2.8231602870
 H       -13.6414465210       -1.4472719608       -3.5607693236
 H       -10.5940634425       -1.8083016103       -5.1109873577
 H       -10.6149020998       -0.1863990827       -5.5489625864
 H       -12.0640564882       -1.1772632792       -5.8183772479
 Na      -10.1567400853        6.2199629059        1.1197520387
