117

 C       -13.0522709239        1.3640580172       -5.0539608476
 C       -12.1829086153        1.0437200834       -3.8065145877
 O       -12.0786800030        1.8929741875       -2.9631748201
 C       -11.4915299191       -0.3712290294       -3.7185214756
 C       -10.3307810462       -0.3448470896       -2.7640742576
 O       -10.2727416680        0.3606565123       -1.8263761352
 C        -9.2449469471       -1.4311704313       -2.9844415123
 C        -8.3347268370       -1.6217272451       -1.7456705833
 C        -9.0863253485       -2.3406561280       -0.5806843498
 O       -10.0413043855       -3.0355923849       -0.6808140618
 C        -8.4542123440       -2.0473746705        0.8414780905
 C        -8.9853256368       -0.6205265840        1.0617102572
 O        -8.3672279192        0.3903627876        1.1917282619
 C       -10.5515293309       -0.5955252352        1.2438432003
 C       -11.2448842538        0.6955670422        0.7765081788
 C       -12.1755271006        1.3354935700        1.8427692267
 O       -12.4289455213        0.8848231554        2.9465638319
 C       -12.9354581520        2.7016196615        1.4688287594
 C       -12.1199509100        3.8950249801        2.0226887323
 O       -11.7132986800        4.6760751171        1.1951668256
 C       -11.7107760488        3.9199190166        3.4990640417
 C       -10.2552379399        3.5168798652        3.6962951307
 C        -9.1617310066        4.6240960433        3.3545262417
 O        -9.4231567429        5.8078651272        3.5462559580
 C        -7.7446160587        4.1251610250        2.8591606650
 C        -7.7635329621        4.0070879539        1.3132770267
 O        -8.7251587802        4.3518807645        0.5943459393
 C        -6.5769579195        3.3559967436        0.6384964035
 C        -6.4803196602        3.8673895906       -0.8440386194
 C        -6.2717609633        5.3259752854       -0.9934675548
 O        -5.4185610874        5.9247097450       -0.3394827696
 C        -7.0853625750        6.2837615426       -1.9695593627
 C        -8.0033397185        7.1927257733       -1.1043813899
 O        -9.2247230133        7.0239932780       -1.0145821628
 C        -7.3116874192        8.3294676991       -0.2175231380
 C        -8.1694595301        8.7881663943        1.0279386523
 C        -9.5624323086        9.2648422712        0.7901408196
 O       -10.5003479197        8.5306412680        1.1121110957
 C        -9.8525806193       10.6561042374        0.1071981897
 C        -9.6939859426       10.3940098280       -1.4218833153
 O        -8.6879210393       10.7241830826       -1.9686304013
 C       -10.7870868241        9.5493908036       -2.0690593618
 C       -11.2353933653       11.1040248085        0.5446110896
 C        -8.8341067438       11.7758801179        0.4517477572
 C        -6.0583472237        7.2970786382       -2.6991213232
 C        -7.9324441131        5.4929748276       -2.9868827266
 C        -6.6878287718        5.2434556465        3.2522813959
 C        -7.4033953601        2.8165128412        3.5705084775
 C       -13.0956641947        2.9250480840       -0.1107977837
 C       -14.3495954279        2.6330989672        2.2067479974
 C        -8.8176587939       -2.9972418835        2.0031484016
 C        -6.8552627624       -2.0111094794        0.6561458873
 C       -12.6354906134       -1.2094697811       -2.9366228614
 C       -11.2898056815       -0.9231674791       -5.1212165890
 H       -12.3075779845        1.8614640750       -5.6742932955
 H       -13.7740025635        2.0555277888       -4.7131417624
 H       -13.5261501172        0.5240131444       -5.5353117432
 H        -8.5258317721       -1.2013519365       -3.8467720270
 H        -9.5456337424       -2.4885448226       -3.2841587217
 H        -7.9063522966       -0.7056036856       -1.3384809567
 H        -7.5092835043       -2.2523955899       -2.1498169854
 H       -10.7225314541       -0.6840906633        2.3197892104
 H       -11.1618303734       -1.4037456873        0.7827625935
 H       -11.8074930447        0.5164725900       -0.0606614667
 H       -10.4934428906        1.4549472524        0.4404621691
 H       -12.3267577718        3.2291871368        4.0205530307
 H       -11.9069253718        4.8894242333        3.9379739512
 H       -10.0468403072        2.5696233369        3.2398191134
 H       -10.2327314078        3.3783291323        4.8011991501
 H        -6.8334041715        2.3511643406        0.6646226598
 H        -5.7822249017        3.6248596568        1.3627261896
 H        -7.4298950920        3.4878222824       -1.2658130530
 H        -5.6465398690        3.4096391280       -1.4383721878
 H        -7.1104325639        9.2283134195       -0.8742329464
 H        -6.3048905175        7.9064994369        0.0228283213
 H        -7.4495474972        9.6036235307        1.3755783283
 H        -8.1962056267        8.1221773860        1.8537972709
 H       -11.7631835553        9.8340603735       -1.6831754269
 H       -10.6265161449        8.5043559842       -1.7796402208
 H       -10.6967486064        9.6543082289       -3.1542281079
 H       -11.9099299843       10.2927805139        0.5849990626
 H       -11.5957132059       11.9258233139       -0.0364108580
 H       -11.1558877734       11.4599074248        1.5629710809
 H        -8.0692061438       11.8098679711       -0.3142817640
 H        -8.2840386702       11.5892295268        1.3475518602
 H        -9.3154480118       12.7174562974        0.5841389540
 H        -6.5493500796        7.9387688325       -3.3980001972
 H        -5.2582829368        6.7790716890       -3.1331970727
 H        -5.6085444940        8.0126970676       -2.0558902483
 H        -8.2072035450        6.1340783163       -3.7673685956
 H        -8.8159147547        5.1405991011       -2.5325351843
 H        -7.3313827230        4.6865500061       -3.3935759153
 H        -6.9972203298        5.6765812947        4.2236025777
 H        -6.6616930890        6.0721729729        2.5144668129
 H        -5.6821158622        4.7700648520        3.3553304321
 H        -7.1108398887        2.8701299375        4.5939262213
 H        -6.5802798547        2.2848304182        2.9684240781
 H        -8.2384621658        2.1254423119        3.6508632451
 H       -13.8248287961        2.2026918127       -0.5925691243
 H       -12.2033164102        3.0362318164       -0.6548762480
 H       -13.4707990502        3.9627205451       -0.2043615300
 H       -14.2587618271        2.2424182875        3.1913841613
 H       -15.0269940091        1.8196529517        1.7813446664
 H       -14.7574847156        3.6113871193        2.2627581645
 H        -9.8600021799       -3.0354726332        2.3038555607
 H        -8.3702534255       -2.5313209507        2.8988055623
 H        -8.4393780997       -4.0405805094        1.8096436730
 H        -6.4911012457       -1.0692083589        0.2321562209
 H        -6.5074215227       -2.8617406284       -0.0218188004
 H        -6.3736851175       -2.2154988108        1.5549888090
 H       -12.8913868696       -0.8294686557       -1.9130123248
 H       -12.4222617618       -2.2683819598       -2.7846689312
 H       -13.5816334582       -1.1656649416       -3.4879598083
 H       -10.4869496503       -1.6215650296       -5.1852248782
 H       -10.9832429681       -0.1415888668       -5.8265333969
 H       -12.1480149166       -1.4575519514       -5.4751191220
 Na      -10.0308292667        6.2793100263        1.1520347988
