117

 C       -13.0372355442        1.3548352496       -5.0984975927
 C       -12.1656285616        1.1437226892       -3.7934285219
 O       -12.0614705155        1.9283548865       -2.8613026365
 C       -11.5394755702       -0.3029674177       -3.7307844005
 C       -10.2663055504       -0.3578856058       -2.7504051265
 O       -10.2189786530        0.3054283158       -1.6762210265
 C        -9.2188493181       -1.4669187052       -2.9839214697
 C        -8.4346135729       -1.6465407447       -1.6568340061
 C        -9.1031060618       -2.4079472031       -0.5231352768
 O       -10.1693086967       -3.0291094308       -0.6506623078
 C        -8.4266955311       -2.0225992001        0.8493556140
 C        -9.0559826685       -0.5140488575        1.1328807114
 O        -8.3550417529        0.4862917468        1.0906161477
 C       -10.5723942229       -0.5005139233        1.3472362916
 C       -11.3245446980        0.7695710568        0.8463931521
 C       -12.2147904243        1.3754682560        1.9074017399
 O       -12.2998325315        0.8288518600        2.9941387921
 C       -12.9683285791        2.7328196388        1.4953377917
 C       -12.0462492333        3.8926288621        1.9399247458
 O       -11.6098791962        4.7261032311        1.1802623455
 C       -11.7941288426        4.0626644058        3.4731941839
 C       -10.3657820450        3.6017919357        3.8261234877
 C        -9.2206961211        4.5914382456        3.4224523437
 O        -9.3470560993        5.7763996716        3.5414324471
 C        -7.8063241845        4.0298176476        2.9179493223
 C        -7.7770953505        3.9329556373        1.3387960648
 O        -8.7107946592        4.3677276045        0.7030852855
 C        -6.5254793393        3.3981373980        0.5571409999
 C        -6.5168329869        3.8700298251       -0.8888207833
 C        -6.2106043311        5.4277360233       -0.9809404835
 O        -5.3292464141        5.9226756910       -0.3112540656
 C        -7.0973505869        6.3149558707       -1.9819683123
 C        -8.0325350827        7.1585574597       -1.0995510119
 O        -9.2129768030        6.9678313955       -1.1451895903
 C        -7.3394851966        8.2847050746       -0.2344442450
 C        -8.0239914385        8.8734112013        1.0197323921
 C        -9.5013013271        9.2351693643        0.7702699091
 O       -10.3946462356        8.4759439301        0.9884313761
 C        -9.8365818084       10.6193779180        0.1952462469
 C        -9.7098800549       10.3180625579       -1.4682247138
 O        -8.7285644823       10.7126226663       -2.0841675255
 C       -10.7892134964        9.5418804696       -2.2437694474
 C       -11.3432564953       11.0790144217        0.5517593675
 C        -8.8549387668       11.7494337882        0.5007280575
 C        -6.1180698163        7.1705930862       -2.7897660001
 C        -7.9067767396        5.4992451861       -2.9743443906
 C        -6.7015413998        5.1603211897        3.1768552497
 C        -7.4721409627        2.7183465015        3.5200468992
 C       -13.0956869567        2.7361742876       -0.0049470403
 C       -14.3636296134        2.7094314512        2.0185883369
 C        -8.8830956562       -2.9877918218        1.9229728704
 C        -6.8732938949       -1.9247172110        0.6580170793
 C       -12.5531162800       -1.1321896464       -2.9369389438
 C       -11.3382022546       -0.9861060076       -5.0927358153
 H       -12.5352515638        1.9344869120       -5.9060841868
 H       -13.9677980811        1.7476979678       -4.7736623433
 H       -13.1898107210        0.3403852282       -5.4216777230
 H        -8.4782566542       -1.2502839411       -3.7849925923
 H        -9.6491418818       -2.3843754225       -3.3234902806
 H        -8.2778417915       -0.6798187936       -1.2012844085
 H        -7.3843088773       -2.0717334119       -1.9063440393
 H       -10.8073297387       -0.7088360884        2.3929868773
 H       -11.0796484938       -1.3331831535        0.7854193764
 H       -11.8778735146        0.5202419822       -0.0433573158
 H       -10.6470948340        1.5486079279        0.5165574749
 H       -12.5375239513        3.4571636701        4.0369662890
 H       -11.9754667669        5.1450171017        3.7739014565
 H       -10.1503502603        2.6702432164        3.2742468062
 H       -10.3888867574        3.3671838119        4.9296993676
 H        -6.6189334042        2.3250410638        0.6669850293
 H        -5.6486245402        3.8279496152        1.0907863148
 H        -7.4705771902        3.5273533999       -1.3330403261
 H        -5.6598124017        3.3183869902       -1.4362089612
 H        -7.1033171664        9.0710622091       -1.0152876786
 H        -6.3814618860        7.8579169076       -0.0022033732
 H        -7.3043164176        9.5326154286        1.4235975539
 H        -8.0962218313        8.0658392278        1.7736194863
 H       -11.7458130303        9.9747964737       -2.0121532720
 H       -10.8208552498        8.4553327322       -1.8603760089
 H       -10.5614780752        9.5743728182       -3.2611277572
 H       -12.0078863065       10.2248392258        0.4198681018
 H       -11.6263872378       11.9123401022       -0.0163685656
 H       -11.3813424319       11.3399849527        1.5858189390
 H        -7.9193649851       11.6070976201       -0.0207039613
 H        -8.5838606808       11.7966725889        1.5447525206
 H        -9.3437224218       12.7239579500        0.2346203659
 H        -6.5284448670        7.8305672950       -3.5496926086
 H        -5.3635436576        6.4817103922       -3.2186355080
 H        -5.5467057003        7.8678402640       -2.2175825800
 H        -8.2428054050        6.1203741963       -3.8231106325
 H        -8.8161005369        5.1601931255       -2.4959129359
 H        -7.2807464392        4.6949319273       -3.3295331420
 H        -6.7688791534        5.6069256374        4.1730828563
 H        -6.8941157396        5.9525478630        2.4267561209
 H        -5.6866480848        4.7347677422        2.9701852079
 H        -7.5612449803        2.6593939525        4.5873883198
 H        -6.4823176791        2.5065520136        3.2589606114
 H        -8.1183872821        1.8641452943        3.2269169121
 H       -13.8774741424        2.0525348329       -0.3921010274
 H       -12.1344550877        2.7457429701       -0.5797460756
 H       -13.3523626391        3.7932056189       -0.2060740482
 H       -14.4094271433        2.2866360374        3.0415951638
 H       -14.9828178073        1.9750681025        1.4964539033
 H       -14.7883137960        3.6781360273        1.9721213442
 H        -9.9630654285       -3.0554060550        1.9734970933
 H        -8.6303851827       -2.6761023634        2.9789595625
 H        -8.5228848010       -3.9629425035        1.6508380576
 H        -6.5725306612       -0.9702133141        0.2249376929
 H        -6.3956565561       -2.7257653493        0.1081842801
 H        -6.4782988258       -1.9778569314        1.7301149566
 H       -12.6584834704       -0.8667766126       -1.8742607923
 H       -12.1402499079       -2.1662678585       -2.8568231848
 H       -13.6100754331       -1.2111382636       -3.2994857553
 H       -10.5280711649       -1.6926481845       -5.0400678033
 H       -11.0021170307       -0.3046941348       -5.9017257561
 H       -12.1578958533       -1.5925529276       -5.4205999833
 Na       -9.9513515409        6.3258964066        1.2246244922
