117

 C       -13.0650624100        1.4906306378       -5.0366450059
 C       -12.1917119474        1.1472755825       -3.7768567751
 O       -11.9351463057        1.9124168676       -2.8858432329
 C       -11.6571615824       -0.3622805200       -3.6419613322
 C       -10.3228189228       -0.3447966148       -2.7138355278
 O       -10.1178618672        0.3570151997       -1.8250689831
 C        -9.3151669761       -1.5838230013       -2.9410535106
 C        -8.2602031330       -1.8230669483       -1.8241959038
 C        -9.0071718181       -2.2530609254       -0.5948968269
 O       -10.0472991344       -2.8224907125       -0.6824793706
 C        -8.4321737585       -1.9264165284        0.9129894057
 C        -9.1562138466       -0.4744960255        1.2508140218
 O        -8.4966641832        0.5120260460        1.0134985930
 C       -10.5616993678       -0.4400116603        1.6951105783
 C       -11.2423745011        0.8218248164        1.0984086103
 C       -12.2253419379        1.5140367429        1.9572680840
 O       -12.3248328524        1.2284076360        3.1282229343
 C       -12.9435700922        2.7416245349        1.4700174831
 C       -12.0090997925        3.9380741532        1.9254707288
 O       -11.6047457109        4.6642547872        1.0329903714
 C       -11.7550583464        4.2186337334        3.3711698417
 C       -10.4343829543        3.6059278273        3.9082879883
 C        -9.2127399703        4.4396496548        3.4147725129
 O        -9.2969086085        5.6760183234        3.3453014468
 C        -7.8399037612        3.9568601498        2.9266536757
 C        -7.8415950980        3.9525511535        1.3436490587
 O        -8.6914507190        4.4721883602        0.6251243662
 C        -6.6151405129        3.3462724074        0.6300215354
 C        -6.5482749472        3.8449693262       -0.8545189624
 C        -6.2618347054        5.3317549531       -0.9963769131
 O        -5.4222716876        5.9163325589       -0.3481560642
 C        -7.0759595531        6.2595519653       -2.0477168486
 C        -7.8937722511        7.1775743866       -1.2069794404
 O        -9.0694359164        6.8817574090       -0.9652169672
 C        -7.1738870494        8.3860100828       -0.4506186217
 C        -8.0587858854        8.7457671412        0.8006703219
 C        -9.4548139168        9.1953062752        0.6013787050
 O       -10.3948610988        8.4231740253        0.9381208934
 C        -9.8677131484       10.5641124630        0.0454077388
 C        -9.6625572192       10.3456402456       -1.5897432535
 O        -8.7162470682       10.7028350050       -2.1923298342
 C       -10.8664182534        9.6660534030       -2.1942981977
 C       -11.3534516175       10.8303887107        0.3642142555
 C        -8.9639320535       11.7185981643        0.4589649768
 C        -6.0222603002        7.0741169036       -2.9058521505
 C        -7.9320864973        5.3918021472       -2.9781995622
 C        -6.7672720199        4.9267523455        3.4082218351
 C        -7.4952060708        2.5197356228        3.4575362723
 C       -13.0341777450        2.7770545321       -0.0745529437
 C       -14.3094166076        2.9184313892        2.1686788683
 C        -9.0608516243       -3.0282336819        1.8938759188
 C        -6.9213030951       -1.7550208964        1.0495744025
 C       -12.7297858450       -1.2374645791       -2.7778683405
 C       -11.2403183080       -0.9511498616       -5.0310619116
 H       -12.3702705600        1.9679159764       -5.7200810563
 H       -13.8486042848        2.2021079542       -4.6699233981
 H       -13.3995043197        0.5702502796       -5.5729297436
 H        -8.7398421103       -1.4761720115       -3.8331790167
 H        -9.8888391382       -2.5120640805       -3.1396963569
 H        -7.6376062932       -0.9134587890       -1.7098786783
 H        -7.6074957951       -2.6084307297       -2.0219954955
 H       -10.6457876220       -0.4098954640        2.8088271750
 H       -11.1040359191       -1.3213730648        1.4402411854
 H       -11.6908072605        0.5202886467        0.1355524497
 H       -10.4700829692        1.5680759278        0.7574172092
 H       -12.6394821335        3.8604728827        3.9057578181
 H       -11.6831107164        5.2892222709        3.5458991447
 H       -10.3859572330        2.5177759635        3.7103858199
 H       -10.5231060677        3.7962805932        4.9710946889
 H        -6.8393888109        2.2545846868        0.7272933253
 H        -5.6584284904        3.6871970934        1.1011004670
 H        -7.5144489153        3.7556789081       -1.3097307120
 H        -5.9014193105        3.1696197043       -1.3051855326
 H        -7.1906482668        9.1726062459       -1.1618323249
 H        -6.1226135098        8.0806784226       -0.2898602840
 H        -7.5277650436        9.6334696234        1.2913808356
 H        -7.9235007262        7.9410079680        1.4983985387
 H       -11.6741463716       10.4101415626       -2.2420135043
 H       -11.1983353293        8.9108324361       -1.5602846371
 H       -10.5905350130        9.2865875115       -3.2113077029
 H       -12.0218521670       10.0703852196       -0.0657222386
 H       -11.5478922490       11.8506809317       -0.1053041348
 H       -11.4794076546       10.8955616275        1.4882684291
 H        -7.9364811580       11.3257112506        0.6661485915
 H        -9.2661566086       12.2635132710        1.3856745947
 H        -8.8801878554       12.4118656826       -0.3605723310
 H        -6.4022798932        8.0721517368       -3.2532810511
 H        -5.6806675852        6.5162708074       -3.7916835636
 H        -5.0804831699        7.4049565011       -2.3673583118
 H        -8.5837523176        5.9706987907       -3.6369201583
 H        -8.6534266846        4.7712667687       -2.4027791388
 H        -7.1918391346        4.7826942365       -3.5754823225
 H        -6.7121112358        4.7198730701        4.4668333796
 H        -6.9889831352        5.9535214614        3.2103992985
 H        -5.8704023111        4.6987207449        2.8895203951
 H        -8.2575215664        2.1282503462        4.0963506928
 H        -6.5567345910        2.4557935074        4.1102667861
 H        -7.4239489378        1.7423019278        2.7538256477
 H       -13.2840029624        1.7570343880       -0.3223961720
 H       -12.1814425582        3.0966907872       -0.5641879939
 H       -13.8228801614        3.4309343120       -0.4169378428
 H       -14.3123968422        2.9518524397        3.2421352831
 H       -15.0591301122        2.1033791112        1.8876182884
 H       -14.7834574087        3.8079336594        1.6753753848
 H       -10.1013464250       -3.3034775982        1.7841714215
 H        -8.9271613503       -2.7310666317        2.8840803973
 H        -8.5024235365       -3.9573830804        1.7541917297
 H        -6.5747806901       -1.0793988767        0.2525477640
 H        -6.4524136947       -2.7486406348        0.8066449223
 H        -6.6386720271       -1.3813201644        1.9810005366
 H       -13.0135103837       -0.8684823034       -1.7873972880
 H       -12.3352068726       -2.1994299248       -2.5229188296
 H       -13.6674360042       -1.3202196712       -3.2738858493
 H       -11.0954475384       -2.0447999250       -4.9848262708
 H       -10.3485558530       -0.5254079199       -5.4710078464
 H       -12.0323350549       -0.8629322609       -5.8056490481
 Na       -9.9117799110        6.2685652092        1.3546057369
