117

 C       -13.0188441433        1.4662687163       -4.9272772748
 C       -12.1440433601        1.0698591623       -3.7204135715
 O       -11.8814161361        1.9331452298       -2.8699660058
 C       -11.6394561391       -0.4042916440       -3.5800373212
 C       -10.3457636707       -0.4720502382       -2.6609416172
 O       -10.0606806772        0.4442808971       -1.8995020877
 C        -9.3174526307       -1.6037899884       -2.9663649121
 C        -8.2426477585       -1.8106938062       -1.9297446983
 C        -8.9360863251       -2.2916826650       -0.5567671933
 O       -10.0732550061       -2.7336310694       -0.6905862191
 C        -8.4027610972       -1.8963055782        0.9598326826
 C        -9.0892883157       -0.5096614242        1.2713714665
 O        -8.5138067697        0.5170456190        1.0670422191
 C       -10.5783980186       -0.3910119689        1.8364093830
 C       -11.2813033300        0.8184572468        1.1845693015
 C       -12.2354519295        1.5978096801        2.1170747917
 O       -12.3731768653        1.3550351094        3.3222429133
 C       -12.9732278041        2.8364164787        1.4157282276
 C       -12.0227914619        4.0744474274        1.7845342262
 O       -11.5311863069        4.7640829751        0.9624468156
 C       -11.7426010860        4.2090113568        3.3689695502
 C       -10.3732083923        3.6268662780        3.8552845599
 C        -9.2274866593        4.4767646449        3.3875801755
 O        -9.3972137956        5.6720801105        3.3366874201
 C        -7.8221281217        3.8816255320        2.9640831834
 C        -7.7387696331        3.9519233512        1.3322145367
 O        -8.6471940156        4.4990486144        0.7352292468
 C        -6.6035885219        3.2506695217        0.6107488759
 C        -6.5259994099        3.7948905821       -0.8981236093
 C        -6.2944549989        5.2808440127       -1.0296483570
 O        -5.4836047071        5.8352385639       -0.3193585490
 C        -7.0114881333        6.1592501117       -2.1298225860
 C        -7.8470556011        7.0852007642       -1.2078119636
 O        -8.9531565477        6.8384908844       -0.8437486135
 C        -7.2168382523        8.4545852048       -0.6036950695
 C        -8.0189379831        8.7122668073        0.7487471135
 C        -9.5185532052        9.1524649077        0.5909413558
 O       -10.4003976391        8.4420496884        0.9850999060
 C        -9.8737633124       10.5450394784       -0.0738399913
 C        -9.7083448089       10.3259814477       -1.6256524392
 O        -8.6813157783       10.7018086768       -2.1810735350
 C       -10.9085341354        9.7048673101       -2.3147395872
 C       -11.3462301189       10.8363406910        0.3241575228
 C        -8.9720919570       11.7390289653        0.3862912488
 C        -5.9848418015        7.0153974017       -2.9149143657
 C        -7.9830110901        5.4085979420       -3.0537163397
 C        -6.6930327769        4.8181997453        3.5925414133
 C        -7.6145307656        2.4005551525        3.3660979030
 C       -13.1435978559        2.8608365343       -0.0872580507
 C       -14.2975318991        2.9915678340        2.1848903196
 C        -9.0517226016       -2.9649186176        1.8764562763
 C        -6.9211097793       -1.7794076764        1.1542826501
 C       -12.6973969416       -1.2080266112       -2.9440076093
 C       -11.3840126747       -0.9820961822       -4.9559290535
 H       -12.2568724690        1.7370622790       -5.7151059159
 H       -13.4832468735        2.3433701667       -4.5755779111
 H       -13.6135966053        0.6825842351       -5.3741398722
 H        -8.8089833302       -1.4024306237       -3.9916480071
 H        -9.9105313459       -2.5532338504       -3.1580095300
 H        -7.7188050089       -0.8999559898       -1.8319914763
 H        -7.4898326142       -2.5786596088       -2.1722359811
 H       -10.5803399391       -0.1129729172        2.8788797030
 H       -11.1991548850       -1.3206698452        1.8609827188
 H       -11.7351077847        0.5684269201        0.3039396951
 H       -10.4431389059        1.5264594348        0.8403013190
 H       -12.5186130052        3.7578694122        3.8830542038
 H       -11.7817044913        5.2466622774        3.5827508398
 H       -10.3531385455        2.6548680405        3.4581603346
 H       -10.3984694195        3.5874816483        4.9491148074
 H        -6.8828696782        2.2419030573        0.6765063687
 H        -5.6292182683        3.5012739927        1.0940609826
 H        -7.3176352500        3.4708966005       -1.5367529695
 H        -5.6292809372        3.2723737554       -1.2127760702
 H        -7.2076833881        9.2978291412       -1.3596363970
 H        -6.1908267034        8.1350434385       -0.4257207749
 H        -7.4395308651        9.5040018973        1.3481132147
 H        -7.8825278577        7.8037739666        1.3020572051
 H       -11.6533105183       10.4634489612       -2.5076888641
 H       -11.3960152284        8.8943894106       -1.6652133190
 H       -10.5350986232        9.3242375988       -3.2200608983
 H       -12.0484148364       10.0370810799       -0.0101575365
 H       -11.6052497752       11.7842691439       -0.1555807711
 H       -11.3497652322       10.9673903540        1.4402472748
 H        -7.9415777187       11.4769130587        0.6174661888
 H        -9.3764508975       12.2285838629        1.2476259387
 H        -8.9387878396       12.4440350247       -0.4537669834
 H        -6.3593823883        8.0107911298       -3.2112510372
 H        -5.6165696005        6.5729898826       -3.8338177543
 H        -5.1256528393        7.2527468694       -2.3223389935
 H        -8.4186971098        6.1123944620       -3.7396468820
 H        -8.8101270874        5.0479506202       -2.4855709012
 H        -7.4655819378        4.6296469521       -3.6360127763
 H        -6.7252001891        4.6358233373        4.6427464078
 H        -7.0181547153        5.8129949379        3.3532214086
 H        -5.7219955435        4.7215739884        3.1156062769
 H        -8.3857953005        1.8454785116        3.8698465381
 H        -6.7492767322        2.3289697249        4.0620975208
 H        -7.3042777890        1.7165435789        2.5178145787
 H       -13.4637692666        1.8817238614       -0.3983060808
 H       -12.2252558100        3.0958391353       -0.5583746374
 H       -13.8669458144        3.5979213289       -0.3558406484
 H       -14.0931098828        2.9603245690        3.2679219629
 H       -14.9030979488        2.0104961913        1.9757305701
 H       -14.9946990261        3.7043468130        1.8650390544
 H       -10.0256554000       -3.2950183177        1.6350502187
 H        -8.9934486172       -2.6483604582        2.9475651714
 H        -8.4241190586       -3.8639487870        1.8283668532
 H        -6.5039350516       -1.1889154283        0.3553479157
 H        -6.5125939242       -2.7955582435        1.0242025513
 H        -6.6789556240       -1.2994826352        2.0849991548
 H       -13.1166002043       -0.7574482676       -2.0581059084
 H       -12.4456591042       -2.1522659128       -2.5792556233
 H       -13.5242078590       -1.1987798180       -3.5981475559
 H       -11.5678589170       -2.0308212707       -5.0089921882
 H       -10.3544189695       -0.8014176089       -5.3529330386
 H       -12.0067525782       -0.5631427649       -5.7214174417
 Na      -10.0021191057        6.2595037749        1.3048943588
