117

 C       -12.9582248621        1.5784684802       -4.7598363205
 C       -11.9647913303        1.0230217154       -3.7183873703
 O       -11.8115265279        1.8616069503       -2.8079249939
 C       -11.4813234262       -0.4937245175       -3.6162212183
 C       -10.1934860407       -0.4764453120       -2.7594488223
 O       -10.0548887018        0.3272757929       -1.8772089711
 C        -9.1905311056       -1.6499831038       -2.9030561799
 C        -8.3984024128       -1.6599848269       -1.5909736525
 C        -9.2039480995       -2.1326869276       -0.4021802105
 O       -10.2589479129       -2.7038296019       -0.5063946070
 C        -8.6723203582       -1.8570697173        1.0001900207
 C        -9.1511963168       -0.3568391183        1.3048294659
 O        -8.4072860258        0.5898293311        1.1578507613
 C       -10.5104549599       -0.1678702731        1.9995275142
 C       -11.4011607358        0.8979936901        1.2383640560
 C       -12.3594835557        1.6066649551        2.1738741570
 O       -12.3902046827        1.2806899461        3.3486036558
 C       -13.1544286452        2.9193985055        1.5754042565
 C       -12.2256385650        4.1434861539        1.8268284830
 O       -11.9482899447        4.9092130849        0.9569577454
 C       -11.6812186740        4.4126846779        3.2962670579
 C       -10.2887792721        3.6693016084        3.4237111470
 C        -9.0340656636        4.5056633772        3.3003871192
 O        -8.9826085313        5.7254989371        3.3761703194
 C        -7.7344160061        3.6760775421        2.9804688637
 C        -7.6019327038        3.9246784105        1.4323898107
 O        -8.2952013849        4.7235863919        0.8270990195
 C        -6.5019553455        3.1343152525        0.5897404391
 C        -6.6627735254        3.6384657104       -0.8551334821
 C        -6.2831180253        5.1080948346       -0.9867877876
 O        -5.5335591649        5.6470080873       -0.2096139291
 C        -7.0140574895        6.0715671038       -2.1152269272
 C        -7.9334443723        6.9288903247       -1.2386046482
 O        -9.0591799400        6.5993732601       -0.9938340527
 C        -7.3252917221        8.2316348527       -0.6253349887
 C        -8.0911876047        8.9249920087        0.5970302308
 C        -9.4811266002        9.2938996242        0.4857143290
 O       -10.3622871761        8.7571333028        1.1630375774
 C        -9.8974502101       10.5900242537       -0.2847965781
 C        -9.7189092715       10.3823977111       -1.7929833001
 O        -8.6478361998       10.5324025708       -2.3328685673
 C       -10.9483607505        9.8435366577       -2.5743679506
 C       -11.3533475811       10.9763870307        0.1089780010
 C        -8.9801913666       11.8462068739        0.1050026215
 C        -5.8541517547        6.7928858682       -2.7407871477
 C        -7.8266893898        5.1956319158       -3.1200397955
 C        -6.4685563437        4.4821753781        3.5703297420
 C        -7.6850209493        2.1531940935        3.4935635400
 C       -13.2883063070        2.7474322421        0.0073157395
 C       -14.4862405869        3.0849916862        2.3130646748
 C        -9.0548931401       -2.9029992955        2.0222937095
 C        -7.0566736723       -1.8230952105        0.8457053244
 C       -12.5767707835       -1.1193124700       -2.7585119378
 C       -11.3297167901       -1.0842995535       -5.0607015242
 H       -12.9004404575        0.9919513013       -5.7005562850
 H       -12.7676111307        2.6225238706       -4.8685772059
 H       -13.9224460748        1.2710242902       -4.3093028007
 H        -8.5609010674       -1.5348353230       -3.7100254544
 H        -9.6611658840       -2.6035399212       -3.0108638863
 H        -7.8895254187       -0.7066341923       -1.2886094206
 H        -7.6115171764       -2.3802930886       -1.7289633663
 H       -10.2026438335        0.2828286360        2.9810126226
 H       -11.0301192621       -1.0450986808        2.3368398413
 H       -11.9175996651        0.3309615946        0.4870394636
 H       -10.6985277245        1.5479614293        0.6250750214
 H       -12.4470352895        4.1087238967        4.0514027981
 H       -11.5078242803        5.5552309120        3.3283961779
 H       -10.3901493533        2.8832136183        2.6569262333
 H       -10.2303757282        3.1568196375        4.4142786143
 H        -6.5318468665        2.0285046807        0.6569683614
 H        -5.5825289401        3.5807079162        1.1338963865
 H        -7.7138234585        3.4150021884       -1.0431335392
 H        -6.0975155864        3.0591993934       -1.5655259978
 H        -7.2915835911        8.9472303604       -1.4356491822
 H        -6.2774476244        7.9966516470       -0.3202797413
 H        -7.4734949414        9.8667619882        0.7745668406
 H        -7.9311168571        8.2704562301        1.3738239427
 H       -11.7719641993       10.5453933693       -2.4720223567
 H       -11.2458002709        8.9174320694       -2.0430274707
 H       -10.7431336595        9.6705898374       -3.6095518269
 H       -12.0276797343       10.1770721904       -0.0575299887
 H       -11.6254806402       11.8288431008       -0.4798779222
 H       -11.2207400793       11.2320565359        1.1538344764
 H        -8.3382340527       12.0423543169       -0.7823985755
 H        -8.3603898211       11.6052271155        0.9780984681
 H        -9.5234816055       12.7691324241        0.2294412506
 H        -6.0219636358        7.3273473566       -3.6914552868
 H        -5.0699128879        6.1570860762       -3.1330449634
 H        -5.3160641486        7.4385606603       -2.0242263572
 H        -8.1854543674        5.8005361551       -3.9447264060
 H        -8.6420762725        4.6178097493       -2.6647315238
 H        -7.0956375964        4.4563201930       -3.5901711762
 H        -6.6302869945        4.5933841760        4.6430758477
 H        -6.3324688794        5.3931119673        3.0062178554
 H        -5.5855059761        3.8800448112        3.3303491923
 H        -8.6283063064        1.7533485982        3.5180739288
 H        -7.3300508951        2.0389281906        4.5393959489
 H        -7.0319671807        1.5494030280        2.9107832945
 H       -14.1124813311        2.0260836832       -0.3092414967
 H       -12.3710458065        2.3332847015       -0.3252267206
 H       -13.4874213239        3.7450311315       -0.4578118579
 H       -14.2054154619        2.9948370041        3.3254319287
 H       -15.4221636908        2.5800528596        1.9362499030
 H       -14.8798672861        4.0700625960        2.2021294963
 H       -10.1260805113       -2.9910500005        1.9237806317
 H        -8.7766644650       -2.6321416269        3.0266781811
 H        -8.6710409137       -3.9392533320        1.8998615129
 H        -6.8022440524       -0.8153514067        0.4793755581
 H        -6.7104858932       -2.6232462238        0.1097336316
 H        -6.6204669087       -1.8538769912        1.7934803998
 H       -12.5226448554       -0.7106016365       -1.6961690378
 H       -12.4213924190       -2.1890138422       -2.5403428383
 H       -13.6229887726       -0.9669416836       -3.0623140687
 H       -10.5930686878       -1.8575914695       -5.2402074542
 H       -11.0882007546       -0.2164953288       -5.6914489697
 H       -12.2646053452       -1.4223777674       -5.5109529337
 Na      -10.0571823174        6.3826733425        1.1509787004
