117

 C       -12.9810447018        1.5011254558       -4.8860567219
 C       -12.0184092284        1.1024956278       -3.6759330292
 O       -11.7253922968        1.8599073430       -2.7594560775
 C       -11.5130125305       -0.3494026854       -3.6304719038
 C       -10.1917731107       -0.4134602065       -2.7427210009
 O       -10.0663767299        0.3782390613       -1.7621865454
 C        -9.2320140572       -1.6259385210       -2.8924286317
 C        -8.3666988838       -1.8012135846       -1.6339480203
 C        -9.2644084508       -2.1325190039       -0.3994539071
 O       -10.3837766871       -2.6814978585       -0.4741928740
 C        -8.7321625516       -1.7647018241        1.0069251041
 C        -9.1607905086       -0.3726972678        1.4046149071
 O        -8.4540236956        0.5843134600        1.1179352408
 C       -10.5259915884       -0.1508471794        2.0362054566
 C       -11.3489878510        0.8855240844        1.2220585172
 C       -12.3154273292        1.6228419891        2.1348049299
 O       -12.5547485599        1.3096116326        3.3036975154
 C       -13.0315115978        2.9226096376        1.6374304928
 C       -12.2173015418        4.2003634362        1.7926550042
 O       -12.0531772608        5.0073421888        0.9114146461
 C       -11.5845075750        4.3972877715        3.1792404767
 C       -10.2334704209        3.6500701612        3.3964352485
 C        -8.9864116680        4.5199759749        3.3768739694
 O        -9.0038291186        5.7287287702        3.3199410372
 C        -7.6795901201        3.6428597028        3.0192084318
 C        -7.5267590962        3.8412504216        1.4579541258
 O        -8.2160992953        4.7339244379        1.0000405071
 C        -6.5549270950        3.0733713584        0.6183214059
 C        -6.6712914551        3.5488069985       -0.8465335481
 C        -6.3304092730        5.0835598273       -0.9607242696
 O        -5.5098606074        5.5819336000       -0.1933883479
 C        -6.9487710703        5.9366007081       -2.0482176718
 C        -8.0018022189        6.9442251753       -1.2269908674
 O        -9.1758023557        6.6994585077       -1.0952515438
 C        -7.3217668433        8.1793555604       -0.7055955275
 C        -8.0289547619        8.8202638404        0.5525140280
 C        -9.4847911532        9.3723734365        0.4561528565
 O       -10.3590413192        8.8275852160        1.0557980661
 C        -9.8662773433       10.7043160395       -0.3178934639
 C        -9.7282895055       10.3477725027       -1.8443170510
 O        -8.6305516263       10.4397923516       -2.4203501483
 C       -11.0060139168        9.8788513554       -2.5871969503
 C       -11.3955731159       11.0586434239       -0.0183280431
 C        -8.9680866113       11.9344074724        0.0597668964
 C        -5.8563810725        6.7826004477       -2.6955708974
 C        -7.6970933248        5.0923862463       -3.0971168482
 C        -6.3497981512        4.3994374206        3.5118165684
 C        -7.6464173312        2.2797290594        3.4547061791
 C       -13.4407637318        2.7824876752        0.1152458241
 C       -14.4191526229        3.0199729963        2.3552025249
 C        -9.0569674308       -2.7508576177        2.0726636244
 C        -7.0658537610       -1.8532230695        0.9499045077
 C       -12.4694127859       -1.2078186797       -2.7303456273
 C       -11.3695317198       -1.0400900680       -5.0010240502
 H       -12.8320523802        0.7003868568       -5.6861573287
 H       -12.5656657825        2.4299600296       -5.2523909010
 H       -14.0399285083        1.4874131726       -4.5933244022
 H        -8.5650978322       -1.5668755288       -3.8031785243
 H        -9.8365660094       -2.5328953524       -2.9809256770
 H        -7.8440685986       -0.9581671635       -1.3466390192
 H        -7.6015378157       -2.5731675501       -1.8519678858
 H       -10.3689090817        0.1634932213        3.0513636804
 H       -11.1293770499       -1.0922287946        2.1990593641
 H       -11.8510439929        0.2796417669        0.5426965870
 H       -10.6729285709        1.5192579040        0.5491630849
 H       -12.3118677548        3.9978760066        3.8630842464
 H       -11.4293701099        5.4760508367        3.3766314505
 H       -10.2182517200        2.8166651918        2.7376128528
 H       -10.3396153524        3.1929371107        4.4010506600
 H        -6.7682772904        2.0262913677        0.7817060655
 H        -5.5213139146        3.3400611072        1.0580202286
 H        -7.5811181398        3.1635410643       -1.1843082594
 H        -5.8953363954        3.0976281467       -1.4273654802
 H        -7.0887784383        8.9506669276       -1.4783277928
 H        -6.3953562749        7.7623800306       -0.3349588201
 H        -7.2496691157        9.5517119862        0.8845108998
 H        -8.0360150703        7.9699117435        1.2120039534
 H       -11.7713207682       10.6207401309       -2.4636595643
 H       -11.3526284525        8.8913906763       -2.1076985737
 H       -10.8476901241        9.7608361471       -3.6174382591
 H       -11.9439280724       10.1305363566       -0.3406241119
 H       -11.6978588520       11.8947804218       -0.6472853234
 H       -11.4680102705       11.2304718555        1.0744568180
 H        -8.4626315862       12.3020643176       -0.8441360583
 H        -8.2593135278       11.6533709794        0.8345671260
 H        -9.5956193246       12.8209277042        0.3757132324
 H        -6.1638082188        7.4063099877       -3.5665047384
 H        -5.0626184298        6.2355839937       -3.2647071265
 H        -5.2745626345        7.3481212112       -1.9721182166
 H        -8.1577417248        5.7647655960       -3.8822737862
 H        -8.4495766195        4.4181863991       -2.6273419100
 H        -6.9823049760        4.4294882068       -3.6500004006
 H        -6.4169577605        4.6352560805        4.5436368446
 H        -6.3375294158        5.2634385191        2.8767010576
 H        -5.4542122150        3.8242633723        3.2786642665
 H        -8.4302782988        1.6521019840        3.0140571823
 H        -7.7209105288        2.1315212639        4.4869923570
 H        -6.6218860652        1.9265709896        3.1882879234
 H       -14.1229497265        1.9709689490       -0.0250903778
 H       -12.6341180579        2.6466449123       -0.6280103231
 H       -14.0271063027        3.6495963118        0.0005855226
 H       -14.1906698461        2.9572669482        3.4546383684
 H       -15.2161047995        2.4110624945        1.9400540881
 H       -14.8859917571        3.9678817131        2.2321963896
 H       -10.0942714494       -2.7967853816        2.1244923363
 H        -8.5984290157       -2.4622711461        3.0282886575
 H        -8.7435512070       -3.7375403912        1.9158004456
 H        -6.6061743875       -0.9382770743        0.6118808473
 H        -6.8558025514       -2.6524984034        0.2779990491
 H        -6.7075481455       -2.0374080238        1.9888532768
 H       -12.4501536701       -0.9138932434       -1.6669335966
 H       -12.1616419829       -2.2640595497       -2.6748230079
 H       -13.5529286994       -1.2077917638       -2.9927117357
 H       -10.5470840646       -1.7463887595       -4.9522331646
 H       -11.1461872941       -0.3355252339       -5.8632405698
 H       -12.2378098436       -1.5912258926       -5.3416825284
 Na      -10.0488048056        6.3381940867        1.2060599397
