117

 C       -12.9526569632        1.4696571834       -4.9172519968
 C       -12.1449122464        1.1564544100       -3.6738144860
 O       -11.9146686954        2.0573723214       -2.8522857618
 C       -11.5946013491       -0.4223626382       -3.4666677363
 C       -10.1863291807       -0.4098739737       -2.5368948163
 O        -9.9405218801        0.3995878568       -1.7267252369
 C        -9.2208458436       -1.6805898694       -2.8259926213
 C        -8.3846696426       -2.0321034804       -1.5735191208
 C        -9.2754746097       -2.1665417065       -0.3148030191
 O       -10.4239023805       -2.4910989599       -0.3182166535
 C        -8.6757122384       -1.8164039266        1.0426897092
 C        -9.2235235525       -0.4302155932        1.3084697027
 O        -8.5243868969        0.5293541659        1.0470572448
 C       -10.6406742291       -0.1266989587        1.8791584893
 C       -11.3102854442        1.0223746356        1.1500969976
 C       -12.3449329866        1.6531360997        2.1037788586
 O       -12.5736766498        1.2574629785        3.2093329824
 C       -13.1925212528        2.9508805406        1.6249972383
 C       -12.1717767725        4.1710564857        1.8197952595
 O       -11.9131371068        5.0337092012        0.9770931060
 C       -11.4716339616        4.3604779355        3.1985632442
 C       -10.1420636800        3.5802544450        3.4695000996
 C        -8.9068081899        4.4590530404        3.3685485489
 O        -8.9906519847        5.6876746681        3.3862944934
 C        -7.5420195357        3.8625471299        3.0350377460
 C        -7.4994633639        3.9781486406        1.4695157429
 O        -8.1737982638        4.7562505996        0.8195734194
 C        -6.5999089535        2.9612342439        0.6324462586
 C        -6.5118722253        3.4705310718       -0.8351017128
 C        -6.2534958296        4.9643393361       -0.9031482814
 O        -5.5268164697        5.4934731030       -0.0926797480
 C        -6.9807033540        5.8527445367       -1.9821990371
 C        -8.0045933751        6.8951205104       -1.2535799443
 O        -9.1978680534        6.6505044412       -1.2303545122
 C        -7.3804528902        8.2488159693       -0.7068600701
 C        -8.0667569143        8.9336590380        0.5257366618
 C        -9.4975123543        9.3017126927        0.3164864352
 O       -10.4758417950        8.6221104171        0.7041287995
 C        -9.8347949755       10.6094715105       -0.4296185075
 C        -9.7288831895       10.2923637498       -1.9918973936
 O        -8.6176898659       10.3100797312       -2.4367954618
 C       -10.9920737028        9.9076312448       -2.7478017615
 C       -11.2729314149       11.1057964206        0.0185324020
 C        -8.8430822038       11.8354432369       -0.1194317775
 C        -5.8544413529        6.6837397363       -2.7275979162
 C        -7.8074520331        5.0818641328       -3.0206089725
 C        -6.4193172510        4.5975190815        3.6486491166
 C        -7.4512673812        2.3485690969        3.5709618163
 C       -13.5320151354        2.8706586152        0.1384222817
 C       -14.3198440112        3.2233430251        2.5677780377
 C        -9.1969573931       -2.7940512406        2.1025386767
 C        -7.1465733227       -1.7813102466        1.1656172022
 C       -12.5711393426       -1.2789360009       -2.7187141762
 C       -11.2484356179       -0.9128410362       -4.8881774241
 H       -13.3838369288        0.5883075461       -5.3452185961
 H       -12.3920895132        2.0903971638       -5.6107488546
 H       -13.7231381909        2.0499018683       -4.4186406664
 H        -8.5622861093       -1.5558175732       -3.6957243912
 H        -9.9459991643       -2.5374688913       -3.0398289969
 H        -7.5104785862       -1.2814699327       -1.4005427464
 H        -7.8702276750       -2.9726141742       -1.6963329699
 H       -10.6230608988        0.0898630524        2.9783135277
 H       -11.1997736654       -1.0122481745        1.8301390961
 H       -11.7703237467        0.5635156452        0.2119341533
 H       -10.5463854346        1.6541445226        0.8059319834
 H       -12.2091755052        4.1869284167        3.9733467889
 H       -11.1857551760        5.3937282518        3.2629587136
 H       -10.0542171081        2.6866539942        2.7962941918
 H       -10.3199640174        3.0823546554        4.4149839597
 H        -7.0523587329        1.9645607344        0.7792416517
 H        -5.5685289023        2.9213033388        0.8963267040
 H        -7.4671847915        3.2221201653       -1.3970137058
 H        -5.6988072556        2.8615518769       -1.3035974343
 H        -7.3909620899        9.0154118916       -1.4957291039
 H        -6.3038298640        8.0720385674       -0.3857799902
 H        -7.4252215642        9.7940900348        0.6182783884
 H        -7.8601263705        8.1833979786        1.3182435019
 H       -11.6198306727       10.7992168037       -2.9562142031
 H       -11.4952982210        9.1347008318       -2.2317230861
 H       -10.6729345723        9.5312986666       -3.7430966966
 H       -12.0283710994       10.3588988887       -0.0558179650
 H       -11.4372988316       11.9571626687       -0.6616248419
 H       -11.1595268635       11.4548454748        1.0476247936
 H        -8.3349442838       12.1797569888       -1.0179999117
 H        -8.1181487416       11.5464615311        0.6407870777
 H        -9.3848444862       12.6439516286        0.2684311387
 H        -6.2080053487        7.5855524339       -3.1484753824
 H        -5.4676783407        6.2252393910       -3.5873497001
 H        -4.9687914103        6.9178041683       -2.1587501707
 H        -8.0209826859        5.7108590767       -3.8330356104
 H        -8.7060744021        4.7977072603       -2.5166352672
 H        -7.3778115076        4.1733540320       -3.4060070239
 H        -6.4192959240        4.2387651765        4.6944042774
 H        -6.4142991660        5.6870915535        3.5669720834
 H        -5.5665008185        4.0971359429        3.2044850131
 H        -7.8552588512        1.6045936485        2.9041647159
 H        -8.1749445210        2.2544085013        4.4757812965
 H        -6.4705475296        2.0850167346        3.9481980322
 H       -13.6358778729        1.8530568353       -0.2482763438
 H       -12.7275375727        3.2238983468       -0.4014751391
 H       -14.4702454083        3.3951716331       -0.0860258622
 H       -14.0215177278        3.5330686147        3.5266779920
 H       -14.9953400937        2.3197685901        2.6177583578
 H       -15.0334084197        3.9988539197        2.1940695513
 H       -10.2321675922       -3.1072636308        1.8333224161
 H        -9.0510170183       -2.5044522593        3.1117346965
 H        -8.5872785405       -3.7340997759        2.0180364530
 H        -6.7640154817       -1.1064044401        0.3948956791
 H        -6.8339486422       -2.8420246264        0.9862450489
 H        -6.8801773756       -1.4826115975        2.1283757417
 H       -12.9284399037       -0.8504162690       -1.7915689176
 H       -12.2145576665       -2.2757639856       -2.5097357969
 H       -13.4503600155       -1.5133124590       -3.2649502035
 H       -10.9624730224       -1.9721530506       -4.9130980783
 H       -10.3901442553       -0.4043328090       -5.2657109914
 H       -12.0537908502       -0.7669803699       -5.6203224616
 Na      -10.0605714565        6.4271600996        1.1633800812
