117

 C       -12.9814699867        1.3943723926       -4.7168246727
 C       -11.9590715458        1.1391857576       -3.5787694755
 O       -12.0083850586        1.8843155971       -2.6883458074
 C       -11.4450015270       -0.3479989286       -3.4920658084
 C       -10.2240402427       -0.4113609920       -2.5352043600
 O        -9.9240854791        0.4462350106       -1.7176924995
 C        -9.4443975367       -1.7180106804       -2.6957060337
 C        -8.5026266990       -1.9471081750       -1.5511472442
 C        -9.3442522632       -2.1714755624       -0.2862685119
 O       -10.5251705975       -2.4684393662       -0.3839918910
 C        -8.6897503497       -1.8494440307        1.2208719602
 C        -9.2789586879       -0.3561148055        1.3302379523
 O        -8.5631438412        0.6025889923        1.1074109004
 C       -10.7668684024       -0.2643826656        1.4766706553
 C       -11.3510144335        1.1602317482        1.1063478582
 C       -12.3396989265        1.7227747091        2.1382427614
 O       -12.5680983617        1.2108066545        3.2234145345
 C       -13.1385062628        3.0539850808        1.6487335737
 C       -12.0796870672        4.2202720674        1.9463863535
 O       -11.5153965907        4.8651729361        1.0719725419
 C       -11.5605503519        4.2974291654        3.3954865015
 C       -10.1428403840        3.6106315386        3.5334902322
 C        -8.9941376720        4.5154423157        3.3622371145
 O        -9.1243142360        5.7338412019        3.3411778700
 C        -7.5452135212        3.9571206745        3.0569468203
 C        -7.4120780040        3.9977133074        1.4513693335
 O        -8.1727417086        4.7236386357        0.7922647294
 C        -6.4893935058        3.1310763484        0.7110269473
 C        -6.5146100386        3.4936459582       -0.7875864786
 C        -6.3082246018        5.0196828180       -0.8674400146
 O        -5.5348914049        5.5994400915       -0.1407584464
 C        -7.0155814391        5.8383475942       -2.0123158376
 C        -7.8960959702        6.8981793492       -1.2624725140
 O        -9.0337308732        6.5601385400       -0.9345983968
 C        -7.2074730020        8.1575619908       -0.6596023955
 C        -8.1164314447        8.7277352790        0.5509633547
 C        -9.5021851979        9.1803831271        0.0883864187
 O       -10.4835970917        8.5290407934        0.3563146590
 C        -9.7613333649       10.6409342329       -0.5118677111
 C        -9.7540621707       10.3338547414       -2.1074221193
 O        -8.6626881030       10.1996610459       -2.5974255813
 C       -11.0527411715        9.9482317146       -2.8434044199
 C       -11.1662824032       11.1033173151       -0.1247919421
 C        -8.7112426594       11.6457073338       -0.1787101016
 C        -5.9014012154        6.5375058460       -2.8032054227
 C        -7.9255958275        5.0305559029       -2.9701375747
 C        -6.4721113930        4.9425509932        3.6327136945
 C        -7.3646754608        2.5069271419        3.4813932746
 C       -13.5247896281        3.0564383700        0.2205581921
 C       -14.3936381709        3.3266210475        2.5896354502
 C        -9.3393921137       -2.9049082852        2.2407239049
 C        -7.2140212160       -1.8302123064        1.2855547853
 C       -12.7720533639       -1.0782454168       -2.8479409251
 C       -11.0871775436       -0.9957474882       -4.8839581425
 H       -13.7677546291        0.7355775622       -4.3837049573
 H       -12.5990608128        0.9285025592       -5.6319257361
 H       -13.2786195257        2.4580348876       -4.7464391919
 H        -8.8526496676       -1.6058085642       -3.5956053218
 H       -10.1249628580       -2.4899721697       -2.7980339730
 H        -7.8524022546       -1.1506523668       -1.4376497534
 H        -7.8458109231       -2.8530953931       -1.6708660130
 H       -10.9787283174       -0.4580728306        2.5182780694
 H       -11.2102650463       -1.1774859664        0.9390309689
 H       -11.8644522830        1.0326094680        0.1848017176
 H       -10.4624950867        1.8661688940        0.8960838495
 H       -12.2800725133        3.8657692016        4.1487654373
 H       -11.3605203521        5.3876204568        3.6746045782
 H       -10.0396502155        2.7967040870        2.8242982210
 H       -10.1666621360        3.0094262527        4.4630516365
 H        -6.8842596824        2.0749702924        0.8506454010
 H        -5.4086835340        3.1252782515        1.0636110810
 H        -7.4476225100        3.1537956741       -1.1651597781
 H        -5.7515416138        2.9375897234       -1.3258331697
 H        -7.2219786468        8.9413484587       -1.4367252168
 H        -6.2156161336        7.8948743063       -0.3550377759
 H        -7.5549648512        9.5234976812        1.0440085554
 H        -8.1979087070        7.8271359946        1.1438063769
 H       -11.6037991042       10.8002055089       -3.1800147784
 H       -11.6091496210        9.3076604390       -2.1591988342
 H       -10.8379698720        9.3388444396       -3.7250869127
 H       -11.8304039846       10.2662100709       -0.2727601580
 H       -11.3871918012       11.9809923276       -0.6660368617
 H       -11.1592051838       11.2895044930        0.9098760461
 H        -7.7644389794       11.3530019611       -0.6142200960
 H        -8.6060003479       11.8594133819        0.8725615915
 H        -9.0399641665       12.6069885782       -0.6515359962
 H        -6.3063112017        7.3154577856       -3.4721167633
 H        -5.1992597649        5.8900188702       -3.3769445229
 H        -5.2039388305        7.1083455377       -2.2049121431
 H        -8.3507570169        5.7530794184       -3.6898200151
 H        -8.7325525999        4.5193305816       -2.4580451127
 H        -7.4179901538        4.2888048122       -3.5373648792
 H        -6.3246266681        4.8563318228        4.7095534540
 H        -7.0066955509        5.8838422726        3.4258648464
 H        -5.4968404343        4.8607896505        3.1242626033
 H        -8.0814683553        1.7896025030        3.0178525407
 H        -7.3306353889        2.3527552311        4.4965094521
 H        -6.3771986829        2.2578833269        3.0867068425
 H       -14.2123247360        2.2292786585       -0.0219706637
 H       -12.6157303268        2.8782787859       -0.4972720009
 H       -14.0157481958        4.0128484632       -0.0182318471
 H       -14.2010668707        3.6371490646        3.6700666174
 H       -15.0783014741        2.5216564712        2.6335278850
 H       -14.9285779478        4.2373998989        2.2721001179
 H       -10.3447662319       -3.2511586241        1.9739714118
 H        -9.3065933531       -2.4202085824        3.2713092384
 H        -8.7271879654       -3.7854295147        2.3851042613
 H        -6.9448688758       -1.1188927804        0.5157510362
 H        -6.7917852408       -2.7949293319        1.1928649926
 H        -6.9631090591       -1.4722077461        2.3532156952
 H       -13.1932129450       -0.5241889943       -2.0215254932
 H       -12.5825407624       -2.1231518362       -2.5559420728
 H       -13.5956858008       -1.3311614031       -3.5437922579
 H       -11.0252606483       -2.0646103712       -4.8076413083
 H       -10.0944771213       -0.7194848179       -5.2653720674
 H       -11.8600878791       -0.7716435522       -5.5940369600
 Na       -9.9138705996        6.3086829648        1.0603155229
