117

 C        -5.7033797091       -4.4766299784        4.5270121335
 C        -5.9686728965       -5.4206902331        3.2852634510
 O        -5.1921968884       -6.1111023299        2.6843676985
 C        -7.2655592108       -5.0011331455        2.4845644423
 C        -8.2140700917       -4.4327895264        3.6039062542
 O        -8.6692430326       -5.0710609732        4.5160870451
 C        -8.4607214852       -2.9455705364        3.4951131957
 C        -9.4516659482       -2.3920892210        4.5556168414
 C       -10.2736571505       -1.2777646956        3.8711773513
 O       -10.6405786755       -1.2399153248        2.6858995644
 C       -10.7150928013        0.0508953747        4.7850188958
 C        -9.8770787491        1.1099013187        4.1602152182
 O        -8.7314606272        1.3348665136        4.5365519087
 C       -10.4193556249        1.8408863245        2.8925353051
 C        -9.3080895732        1.9655220033        1.8089100309
 C        -9.7280689626        2.7579141155        0.5800415533
 O        -9.2138296710        3.8339598718        0.4096300170
 C       -10.7558048192        2.1226855662       -0.4533611105
 C       -12.2667079183        2.4379462030       -0.2065261888
 O       -12.6379906547        2.4207469239        0.9322543594
 C       -13.2992486970        2.4646244214       -1.3928350937
 C       -13.9246285701        3.8573562748       -1.6531923019
 C       -12.9915411728        5.0053269007       -1.3358646482
 O       -12.1020919028        4.7639051792       -0.5541772606
 C       -13.3348935034        6.4177342076       -1.9920510531
 C       -12.1477848582        6.7199539188       -3.0748294173
 O       -11.0250797463        6.2200858793       -2.9648377494
 C       -12.5217092315        7.5510485012       -4.3598137479
 C       -11.1783451501        8.2006063486       -4.9031375227
 C       -11.0981330108        9.6296676569       -4.3743900083
 O       -11.9146288205       10.1331231520       -3.6336851149
 C        -9.7239032022       10.5110215131       -4.6225092998
 C        -9.0001725752       10.1827501668       -3.3461978582
 O        -8.3681472450        9.1380922721       -3.3687892371
 C        -9.1366924029       10.9634847389       -1.9595018950
 C        -8.2759262507       10.2440395127       -0.9238767698
 C        -8.4262933225        8.6971843963       -0.8123089898
 O        -9.5365545072        8.2202324087       -0.8708594723
 C        -7.1942393263        7.8119396547       -0.5143436399
 C        -6.9430938280        6.9740863009       -1.8894632532
 O        -7.8570759008        6.1465430152       -2.0808505664
 C        -5.7188677590        7.2240264387       -2.7679867427
 C        -5.8781409323        8.6833482218       -0.3039160733
 C        -7.5796852324        6.9360220576        0.6447194519
 C        -8.7445008742       10.0233936547       -5.7322094696
 C       -10.0376114729       11.9292416079       -4.8705950518
 C       -14.6834832189        6.5037720324       -2.7045581203
 C       -13.2021297966        7.4621939258       -0.8639395136
 C       -10.0109162185        2.3409136768       -1.8307437192
 C       -10.7764920488        0.5053736460       -0.2290044148
 C       -12.2420480110        0.0790974535        4.6646311869
 C       -10.2411169166       -0.1226559111        6.2776570088
 C        -6.9653928730       -4.0076674339        1.3562034046
 C        -7.8995657394       -6.3202315942        2.0023656941
 H        -5.6629256874       -3.5707396979        3.9451501682
 H        -4.7629285427       -4.6841718508        5.1054242607
 H        -6.5193971882       -4.4313479742        5.2099194549
 H        -8.7761445085       -2.6448369535        2.4903975263
 H        -7.4745639989       -2.3123461631        3.6923149706
 H        -8.8773278944       -2.0663460757        5.4369284080
 H       -10.2144829468       -3.0713145421        5.1037182202
 H       -10.8505035431        2.8362294573        3.2417399778
 H       -11.2453385203        1.2043856534        2.5240449947
 H        -8.9477459270        0.9987229179        1.6207236421
 H        -8.5352764573        2.5032670964        2.3314223399
 H       -14.0105989997        1.8298622781       -0.9867972830
 H       -12.7969274099        2.2299524803       -2.2879671910
 H       -14.8307673634        4.0003971515       -1.0422887612
 H       -14.2616076109        3.8794974744       -2.6290999088
 H       -13.5001771768        8.2167187530       -4.2490976900
 H       -12.7754728618        6.7745576174       -5.1129683411
 H       -11.2377376207        8.2976535288       -5.9703637915
 H       -10.2931203978        7.4952355636       -4.7631648558
 H       -10.2166413684       11.0417467172       -1.6410470673
 H        -8.7808681413       12.0014123745       -2.1042274709
 H        -8.3789445368       10.6136375487        0.1637846412
 H        -7.2531886067       10.5281011911       -1.1327529209
 H        -5.8071888366        8.2092664082       -3.3714361064
 H        -5.7351419727        6.3965931216       -3.4053202004
 H        -4.8012235322        7.1595550374       -2.1921473367
 H        -6.0438235779        9.5033268362        0.3763170438
 H        -5.5153289326        9.2110327467       -1.2363917777
 H        -5.0537489147        8.1202890341        0.1799952966
 H        -6.9286273210        7.2994738579        1.3823338173
 H        -7.6028277543        5.7831364593        0.5891963900
 H        -8.5489959437        7.1352935063        0.8855402611
 H        -8.4964293927       10.8730865367       -6.4175859019
 H        -9.3003028797        9.3337693144       -6.4211568513
 H        -7.8799780941        9.5436823569       -5.3024116805
 H        -9.1201786366       12.4407220912       -5.0707585008
 H       -10.3980484276       12.5095898058       -3.9096003629
 H       -10.7922150372       12.1342154193       -5.6558169435
 H       -15.5255180205        6.1899144464       -2.0966059360
 H       -14.7175041767        5.8441898530       -3.5202520070
 H       -14.9784897333        7.5700683492       -2.9550635552
 H       -13.9489266432        7.2635724208       -0.1810657997
 H       -13.3366399097        8.4635551018       -1.2476139716
 H       -12.2710351579        7.5033783430       -0.4203098562
 H       -10.5085873686        1.8239081293       -2.5789504838
 H        -8.9679809260        1.8845191060       -1.8772808646
 H        -9.9767396795        3.3558063067       -2.0658129885
 H       -11.1699595404        0.2035888484        0.7605173225
 H        -9.7600922661        0.1894670224       -0.2646626776
 H       -11.4890164365        0.0432392879       -0.9671836021
 H       -12.6815990347       -0.9018627556        4.9146784275
 H       -12.5850166329        0.2241294343        3.6558969131
 H       -12.7605891476        0.8455909128        5.2215219639
 H       -10.3726354970       -1.1664215124        6.5866469728
 H       -10.9139988813        0.4464406203        6.8530778481
 H        -9.2523979211        0.3532828504        6.4307540917
 H        -6.3096732118       -3.2098980557        1.5956279122
 H        -7.8748660876       -3.6068888641        0.9980767262
 H        -6.3108267194       -4.4452853107        0.6402480912
 H        -7.9461559510       -7.0521587831        2.8032629790
 H        -7.2652308922       -6.8224024522        1.2417600366
 H        -8.8961523172       -6.1457598925        1.5178109367
 Na       -9.9532645466        5.7993963530       -1.0464531160
