117

 C        -6.1839501675       13.0802654053       -0.7193773104
 C        -6.2657305133       11.8662037541       -1.7163093693
 O        -7.3070603530       11.2398450895       -1.8484086434
 C        -4.9107155663       11.2551216423       -2.3603650443
 C        -4.0808340356       10.5029639691       -1.1213492880
 O        -3.4060154381       11.1789625255       -0.3739364469
 C        -4.3907400692        9.0328941720       -0.7255060764
 C        -5.6456959798        8.9263460587        0.1269388081
 C        -5.9272651424        7.4423447158        0.6776492500
 O        -6.0329718073        6.4876411316       -0.0716178148
 C        -6.2979534631        7.2628172660        2.1908123995
 C        -7.8787925215        7.5179123608        2.2564432473
 O        -8.3683638095        8.4542486298        2.7991573013
 C        -8.7527263594        6.5129867760        1.3939525254
 C       -10.1892507520        6.4752197394        1.9355215638
 C       -11.1563593711        5.4096985883        1.4194016169
 O       -10.8456735806        4.2597102146        1.6297997527
 C       -12.2999028777        5.7316986343        0.4144069401
 C       -12.9766556146        4.4324837934        0.1288525922
 O       -12.4595031459        3.5763493509       -0.5596507331
 C       -14.3645757133        4.2284389424        0.7826726975
 C       -14.9862481952        2.9042629090        0.6472855790
 C       -14.4539945321        1.8536257778        1.6235873851
 O       -13.6723163140        2.2255221381        2.4870903017
 C       -14.8452253135        0.3832686295        1.4435607773
 C       -13.8337106469       -0.4097443398        0.5803147955
 O       -12.6066713249       -0.1659539395        0.4962257041
 C       -14.3986682115       -1.6910384724       -0.0350422658
 C       -13.2406598667       -2.6444942382       -0.2965180303
 C       -12.5933384591       -2.3553774543       -1.7144602698
 O       -12.9749329811       -1.5791722387       -2.5502594898
 C       -11.3708273183       -3.1448089960       -2.1717659145
 C       -10.0488631174       -2.2834842702       -2.2084209437
 O        -9.0266753681       -2.6154793202       -1.6465722248
 C        -9.9315872909       -0.9744634450       -3.0457588530
 C        -8.7447729400       -0.1926035854       -2.5239623924
 C        -9.0263100665        0.6082812154       -1.3019295590
 O        -9.9948808201        1.4339710064       -1.2844555789
 C        -8.1727649447        0.3922315448        0.0150510238
 C        -9.0247249365       -0.2932951271        1.1149436374
 O        -9.7661669920        0.2656219783        1.8373162401
 C        -8.8978091074       -1.8130384554        1.2898491727
 C        -6.8266593708       -0.3053534721       -0.1997395756
 C        -7.7981333094        1.7767611585        0.5769587387
 C       -11.1130711889       -4.4828215813       -1.5259392152
 C       -11.6365266809       -3.5619030999       -3.6960258460
 C       -14.7699702623       -0.1239875487        2.8951062382
 C       -16.3369289458        0.1672356376        1.0096837731
 C       -13.1098718921        6.9236778793        1.0418151212
 C       -11.7139245265        6.1424577005       -0.9584733682
 C        -6.1047252352        5.7333779499        2.4620915133
 C        -5.5157258054        8.2412652388        3.1052364423
 C        -5.2210354982       10.2389296582       -3.5218001481
 C        -3.8583714948       12.3111699247       -2.8852025364
 H        -7.1916520332       13.4411772404       -0.5989020666
 H        -5.3616887457       13.7137866195       -0.8878170279
 H        -5.9223615118       12.6544543566        0.2823213020
 H        -3.5247825864        8.6176602763       -0.1262393078
 H        -4.4246625653        8.3706784732       -1.5265118707
 H        -6.5915527852        9.1371385282       -0.3716551870
 H        -5.6760152376        9.5317258955        1.0664236930
 H        -8.3183973551        5.5121505034        1.1660235064
 H        -8.8905478984        6.9654541132        0.3541814566
 H       -10.5827825601        7.4508034779        1.8688061821
 H       -10.1346988522        6.3136552314        3.0511308606
 H       -14.9028695962        5.0378705878        0.2819245850
 H       -14.4298290025        4.5121699358        1.8413719040
 H       -15.1352411115        2.4166189108       -0.4022920437
 H       -15.9855814339        3.0390116284        1.0122446536
 H       -14.9887454822       -1.3619254219       -0.9059706619
 H       -15.0787910726       -2.1295813939        0.7139550102
 H       -13.4932419055       -3.7345250481       -0.2744704686
 H       -12.5537561310       -2.6186085345        0.5597976055
 H       -10.8356360711       -0.3923142228       -3.0383483346
 H        -9.8905249292       -1.3191927610       -4.0728210555
 H        -8.5645701812        0.5866560697       -3.2877015061
 H        -7.7866009706       -0.7873855013       -2.4552881975
 H        -9.1102859395       -2.3131843159        0.4081823504
 H        -9.6212907224       -2.0933842482        2.1690548418
 H        -7.9782843331       -2.0801761478        1.7405004924
 H        -6.1804908503        0.3600810445       -0.6942407721
 H        -6.9316117660       -1.2784742778       -0.7773506087
 H        -6.3713862029       -0.4883414986        0.7309994277
 H        -8.6521999258        2.4151240342        0.6650905491
 H        -7.1208324229        2.2795054470       -0.1339997664
 H        -7.4108555557        1.6988040403        1.5703172464
 H       -11.8615054975       -5.3009324190       -1.6849227609
 H       -11.0164193096       -4.4230706469       -0.4385420468
 H       -10.1119590026       -4.9063853780       -1.8233847138
 H       -12.1296718853       -2.8550631479       -4.2895183229
 H       -12.2108187283       -4.4819303466       -3.6226560704
 H       -10.7699331583       -3.7043304387       -4.3250270821
 H       -15.6701219013        0.2336513655        3.3487519138
 H       -13.9044814624        0.2816413730        3.4583813326
 H       -14.6515346669       -1.2094292092        3.0371512029
 H       -16.9216189753        0.7504705636        1.6891952880
 H       -16.6105345373       -0.8292686921        0.8490088259
 H       -16.4546010625        0.6039621100        0.0001369996
 H       -14.2444348288        6.9159314768        0.8832119022
 H       -12.6296191958        7.8152637794        0.6621857465
 H       -13.0187695246        7.0840356084        2.0828769616
 H       -11.4345160076        5.3175595568       -1.5682842815
 H       -11.0847555249        7.0175628933       -0.9544169410
 H       -12.5303476124        6.5247349161       -1.5381278955
 H        -5.0723063715        5.3920588053        2.3899983233
 H        -6.6652178340        5.2020476982        1.7300717894
 H        -6.4367217636        5.4524479829        3.4681781439
 H        -5.9859113625        9.2084311892        3.1959918510
 H        -4.4931835273        8.3664365915        2.7486419547
 H        -5.4759784027        7.9567766105        4.1238097275
 H        -5.9835295237        9.5412957509       -3.0972934986
 H        -4.2806578820        9.8872592106       -3.8794424507
 H        -5.7476821513       10.8016419776       -4.2834670870
 H        -4.0269593596       12.6068656159       -3.9067257347
 H        -2.8593458337       11.8786797211       -2.8508017864
 H        -3.8669828573       13.2521733348       -2.2685923719
 Na      -11.1458974406        2.1228189537        0.7416979891
