117

 C       -12.1503987206        2.2465919973       -3.8155907538
 C       -12.4816163911        0.8722506645       -2.8967992583
 O       -13.4160416192        0.9042023963       -2.1158632848
 C       -11.7725067415       -0.5420102451       -3.2395962722
 C       -10.4234900868       -0.4451856325       -2.3962715803
 O       -10.1316009104        0.5852695868       -1.8823154183
 C        -9.4270093209       -1.6529358626       -2.3681641329
 C        -8.6571604112       -1.6183523661       -1.0717729166
 C        -9.4906831789       -2.2850980533        0.0378640519
 O       -10.4620926519       -3.0069174164       -0.2361446611
 C        -9.2418640620       -1.9150654926        1.5518372000
 C        -9.7336901381       -0.3557832711        1.6750955303
 O        -8.9546357556        0.5249412029        1.9051501245
 C       -11.2775680769       -0.2205673824        1.3819516273
 C       -11.7835810306        1.2122710862        1.0734904374
 C       -12.8497121327        1.5894041121        2.0271023597
 O       -13.3584848073        0.7903061471        2.7885542852
 C       -13.3529530828        3.0928782864        1.9689305248
 C       -12.1151448004        4.1040812584        2.0725074294
 O       -11.7390447546        4.7740762013        1.1143807610
 C       -11.4210058954        4.0251039837        3.4044917921
 C        -9.9565287900        3.7014101874        3.0932501680
 C        -9.0139919108        4.9248033008        3.2909483664
 O        -9.5183011650        6.0419335440        3.4906598950
 C        -7.4150236757        4.6918530710        3.1354055579
 C        -7.2255285636        4.4290232086        1.6010818065
 O        -7.9744684700        5.0650953712        0.8023892450
 C        -6.1569250230        3.5644314739        1.0815668541
 C        -6.1088344496        3.5876906365       -0.4635187112
 C        -5.8544212475        5.0593520914       -1.0206679755
 O        -4.8906080289        5.6402256253       -0.5150429562
 C        -6.7445348904        5.6449181374       -2.1718642721
 C        -7.6261404628        6.7405028176       -1.4089243110
 O        -8.8337217149        6.5909927520       -1.2823193189
 C        -6.9113438765        8.0503463853       -1.0359332541
 C        -7.5458881868        8.7735709871        0.1480527598
 C        -8.9566738454        9.2043072167       -0.2818104821
 O        -9.9547090187        8.7139369947        0.2240269665
 C        -9.1457856495       10.4025277224       -1.2671805448
 C        -9.5512739745        9.7490466393       -2.6856747151
 O        -8.6640698325        9.5297707425       -3.4619281596
 C       -10.9875323685        9.1629783778       -2.9070808734
 C       -10.3572931786       11.3800222964       -0.7703515245
 C        -7.8328828395       11.2968697646       -1.4727099522
 C        -5.8754077528        6.3217445104       -3.2512201969
 C        -7.5907741729        4.5335138326       -2.8915598901
 C        -6.6884937322        6.0109019499        3.4457604359
 C        -6.8924594282        3.4507208887        3.9479365189
 C       -14.0256041925        3.2936569867        0.5603189335
 C       -14.3853844506        3.3868763717        3.0298082284
 C       -10.0824846225       -2.7490101551        2.4946643901
 C        -7.6796638662       -1.9265320111        1.8216818651
 C       -12.6286522133       -1.8264936906       -2.8400685444
 C       -11.4355384250       -0.5963123347       -4.7235986653
 H       -11.2428501796        2.0205750348       -4.4308396787
 H       -11.9081496744        3.0649747171       -3.2173677269
 H       -12.9894002870        2.4378382595       -4.4022205188
 H        -8.8118824776       -1.5763945635       -3.2141757934
 H        -9.9522503383       -2.6092982932       -2.5111593465
 H        -8.3891986394       -0.5149100350       -0.7735294003
 H        -7.7325209992       -2.1684983901       -1.2695096328
 H       -11.9343740457       -0.5905558803        2.1677697895
 H       -11.4311203760       -0.7997561630        0.4715183958
 H       -12.3174958994        1.3674600117        0.0668952076
 H       -11.1224989509        2.0135785378        1.1839740044
 H       -11.8666537078        3.1832657829        3.9297736085
 H       -11.4423337685        4.9278453426        4.0223153707
 H        -9.9330753029        3.2799513571        2.0598570419
 H        -9.7636717619        2.9387547924        3.8257822844
 H        -6.2229000714        2.4734668876        1.3794730110
 H        -5.1310445319        3.7570465757        1.4336907970
 H        -7.0891510494        3.2110044850       -0.8604721544
 H        -5.2614848085        2.9081088111       -0.7723483980
 H        -6.7802747318        8.6855612387       -1.9617666132
 H        -5.8889646852        7.7094787850       -0.7806949735
 H        -6.9143922436        9.5985157514        0.5724287841
 H        -7.7807528494        8.0127486952        0.9295626105
 H       -11.4689188672        9.5615464091       -3.8092948185
 H       -11.6905722223        9.4051746471       -2.0289739895
 H       -10.8575263274        8.1164886144       -2.9933148860
 H       -11.1521983776       10.9203649049       -0.1326261956
 H       -10.7771632328       11.9198825071       -1.6436783808
 H        -9.8604170872       12.1289532663       -0.0664938856
 H        -7.1534639756       10.8916461221       -2.2710996164
 H        -7.2827538740       11.3521963580       -0.5062323402
 H        -8.0855692694       12.3085696495       -1.7754952594
 H        -6.5218111781        7.0663125262       -3.7757551819
 H        -5.5164855714        5.6770759018       -4.0477818208
 H        -4.9682447362        6.7326812694       -2.7878095309
 H        -8.1263734872        4.9236607915       -3.7647120762
 H        -8.2700211271        4.0177125766       -2.1902638814
 H        -6.8921181333        3.6918461552       -3.2357923820
 H        -6.9195866756        6.2269936964        4.4763055202
 H        -7.0381163810        6.7839992609        2.7938976553
 H        -5.6263401847        6.0098280218        3.3652641673
 H        -7.6445964158        2.6678011993        3.9336342780
 H        -6.7036936923        3.6805907886        5.0332717069
 H        -5.9365681446        3.2452298600        3.4423172921
 H       -14.5412722386        2.4011099327        0.3234516678
 H       -13.3354885954        3.4389526617       -0.2670888752
 H       -14.7498094527        4.0601899736        0.6003661253
 H       -13.9562161533        3.0535696069        3.9622102781
 H       -15.4013174802        3.0026944133        2.8542740035
 H       -14.6675310023        4.3853174393        3.1693426588
 H       -11.0300411492       -2.7937996248        2.0768996343
 H        -9.9971503926       -2.4085722985        3.4941239267
 H        -9.7490013409       -3.7822803238        2.4558397830
 H        -7.1708897707       -1.2166741747        1.1692527628
 H        -7.2904165873       -2.9423104646        1.5392403293
 H        -7.5092487127       -1.7571685343        2.8403303850
 H       -12.6286906314       -1.9408347043       -1.7208444751
 H       -12.2616735974       -2.7769516405       -3.2089061160
 H       -13.6364483980       -1.6891892746       -3.1711344066
 H       -11.1204255087       -1.6345123146       -4.9665456256
 H       -10.5757786297        0.0655398544       -4.8696475083
 H       -12.2801611379       -0.3067388052       -5.3719629006
 Na       -9.9492898656        6.3350886021        0.8084995051
