117

 C       -11.9736950326        2.0901275510       -3.3679809741
 C       -12.6724346089        0.8263397366       -2.8532884501
 O       -13.6992721072        0.7051782442       -2.1728750346
 C       -11.7943291967       -0.5022867551       -3.1672494204
 C       -10.3908275068       -0.3195681738       -2.4245914369
 O       -10.0502783207        0.7568575676       -1.8806127942
 C        -9.4542796776       -1.5440826987       -2.3862197505
 C        -8.6149451415       -1.7026431167       -1.0763871254
 C        -9.5291437662       -2.2378687370        0.0308645091
 O       -10.5704414235       -2.8621066899       -0.1667683602
 C        -9.2675861152       -1.7762648046        1.4863978336
 C        -9.8691487523       -0.3724449222        1.6623686955
 O        -9.0927579725        0.5996424707        1.7567924163
 C       -11.3677612540       -0.2033523686        1.5180836051
 C       -11.7140958547        1.2272779946        1.2478061487
 C       -12.9007767326        1.7208863243        2.0756441059
 O       -13.4066405311        0.9311757881        2.8532608632
 C       -13.3936361153        3.1364202095        1.8991238824
 C       -12.1896057215        4.0156578041        1.9014989492
 O       -11.7651205343        4.6890604944        0.9406942628
 C       -11.3850165665        3.9638697746        3.2380947408
 C        -9.8158537058        3.7234332581        2.9976130509
 C        -8.9577657785        4.8867587440        3.2595815458
 O        -9.3436344840        5.9773235046        3.6087502316
 C        -7.3848716411        4.7972266059        3.0987952725
 C        -7.2177839360        4.5153399231        1.5100775677
 O        -7.8784712102        5.0556353601        0.6771048233
 C        -6.0842708339        3.6274703174        1.0778383667
 C        -5.9685628827        3.5544533822       -0.4665276761
 C        -5.8388843254        4.9433554845       -1.0109624647
 O        -5.0206731115        5.6706133746       -0.4955165434
 C        -6.7336157696        5.5216205886       -2.2414351348
 C        -7.5716883958        6.6974888420       -1.5515577860
 O        -8.7557922921        6.4684063328       -1.3899443882
 C        -6.7810913197        7.9260819313       -0.9519907787
 C        -7.5713343550        8.6548233592        0.0764497945
 C        -8.9685805350        9.1978812280       -0.2825427153
 O        -9.9794664350        8.7449568050        0.2833365083
 C        -9.0962475158       10.3768874232       -1.3239981851
 C        -9.4858135095        9.5978636432       -2.6956704083
 O        -8.6822257891        9.5898599462       -3.6188352638
 C       -10.8880830918        9.0274849479       -2.8006676816
 C       -10.2636108190       11.2974356259       -0.8841033526
 C        -7.8377407202       11.2041801911       -1.6470592163
 C        -5.6709420685        6.1737331640       -3.2629037534
 C        -7.7491118019        4.5136218368       -2.8838430218
 C        -6.7456141832        6.1049806930        3.5721838853
 C        -6.8781641262        3.5888696528        4.0193986901
 C       -14.1368249433        3.1405446411        0.5043582636
 C       -14.3706938415        3.5345656488        3.0014753661
 C       -10.0754918204       -2.7597282899        2.4051573409
 C        -7.7875931945       -1.8119627021        2.1629453289
 C       -12.7153882717       -1.7352305485       -2.6681438786
 C       -11.4004807059       -0.6749483582       -4.7069732202
 H       -11.2470904982        1.9067170147       -4.1482245332
 H       -11.5060803206        2.6264176697       -2.4976601030
 H       -12.8407194293        2.7512891348       -3.6646315753
 H        -8.8234620813       -1.4838967219       -3.3172873498
 H       -10.0925800496       -2.3654255046       -2.5774571717
 H        -8.2763198607       -0.7956831708       -0.7902820498
 H        -7.7458384156       -2.3435638600       -1.2723780713
 H       -11.8883395289       -0.5972544418        2.4218321994
 H       -11.7091749702       -0.7930580187        0.6458008627
 H       -12.0129613159        1.3528306214        0.2400701561
 H       -10.8505698015        1.9907409421        1.4374464094
 H       -11.8270760826        3.1302611102        3.8703378782
 H       -11.3943919799        4.9581008020        3.7986051361
 H        -9.6869207314        3.4502399852        1.9621968417
 H        -9.4942976006        2.9297811728        3.7023834220
 H        -6.2350639380        2.6100669484        1.4094764727
 H        -5.1112118108        3.8346224230        1.5487829014
 H        -6.8315247409        3.0655099876       -0.8706543610
 H        -5.0672593201        3.1100646552       -0.8125241600
 H        -6.5295202378        8.5372188366       -1.7916435555
 H        -5.8045277807        7.6416353809       -0.5361446059
 H        -7.0784028723        9.5906535944        0.2734254719
 H        -7.6851817983        8.0745498833        1.0056336294
 H       -11.4305959332        9.4932622045       -3.6174720183
 H       -11.3697131744        9.2479928859       -1.9004841879
 H       -10.8528434107        7.9292316728       -2.9691600699
 H       -11.0105511999       10.6723837114       -0.4336562348
 H       -10.6549719579       11.7663365680       -1.7941170256
 H       -10.0378269493       12.0297116018       -0.1628023376
 H        -7.0707308935       10.5956795616       -2.0746340008
 H        -7.4878799827       11.8416867272       -0.8531056003
 H        -8.1743074091       11.8696876785       -2.4479980983
 H        -6.1434078764        6.5911392715       -4.1034604935
 H        -5.0014757047        5.3717033715       -3.5576740553
 H        -5.0214917130        6.8584487914       -2.7449333923
 H        -8.2296300751        4.9829584916       -3.7296526502
 H        -8.5097697182        4.3374774843       -2.1407757201
 H        -7.3583568053        3.5871500015       -3.1381875863
 H        -6.5143941598        6.0731431195        4.6549042093
 H        -7.3347829214        7.0078315672        3.3109556258
 H        -5.7692996669        6.2598630258        3.0761834919
 H        -7.0053267408        2.5883907551        3.6116816122
 H        -7.6451111745        3.6319764455        4.7788738034
 H        -5.9004056141        3.7871624022        4.3801341694
 H       -14.9316650709        2.3432043533        0.4236599741
 H       -13.4801961725        2.8615441754       -0.2995074334
 H       -14.4743480010        4.1998729771        0.3585979601
 H       -14.0309880113        3.5527183868        4.0157361383
 H       -15.2624667341        2.8635617503        2.9303888720
 H       -14.8205084512        4.5696224361        2.8521002302
 H       -10.9761254320       -3.0489891684        1.7769839043
 H       -10.3039253126       -2.2354858162        3.3360765478
 H        -9.6023966119       -3.7143525488        2.6094896415
 H        -6.9888329484       -1.5743460871        1.4361833743
 H        -7.5867799091       -2.7996834043        2.5505172310
 H        -7.7564171718       -1.1018893019        3.0383009243
 H       -13.1475351296       -1.5460698690       -1.7217397114
 H       -12.1365233409       -2.6674590162       -2.6492159177
 H       -13.4512281729       -1.9785103330       -3.4495635262
 H       -11.0523439636       -1.6714607376       -4.9626048428
 H       -10.6014447441        0.0298300047       -4.9156441825
 H       -12.2899644372       -0.4602278759       -5.2913871336
 Na       -9.9355184271        6.4577904761        0.8418721786
