117

 C       -12.1404581926        2.2816930345       -2.9935603460
 C       -12.6977646920        0.8096312635       -2.8055284369
 O       -13.7979165557        0.6976672352       -2.4102626583
 C       -11.7688757554       -0.5272640648       -3.0390138060
 C       -10.3330824213       -0.3506710065       -2.3513741937
 O       -10.0376512906        0.6552459638       -1.7690446110
 C        -9.2604446773       -1.5660000885       -2.3479799588
 C        -8.5987478758       -1.6693723956       -0.9868177887
 C        -9.5805707896       -2.2373950131        0.0784865607
 O       -10.5659916413       -2.8111539473       -0.2287660490
 C        -9.3521101322       -1.7613031710        1.5644857058
 C        -9.9010388203       -0.3770626530        1.6897682660
 O        -9.1670520945        0.5735965925        1.6697585105
 C       -11.4587055172       -0.2847819903        1.6390692031
 C       -11.9234464788        1.1038075895        1.2177938016
 C       -13.0568644418        1.7493509054        2.0988304554
 O       -13.5349093780        1.2033020021        3.0269375147
 C       -13.4693584830        3.2136123780        1.6915766894
 C       -12.0658157601        4.0075548219        1.7452262614
 O       -11.7949307627        4.8276340222        0.8943917319
 C       -11.2819411992        4.0040089912        3.0390489165
 C        -9.7711221200        3.7258638707        3.0477647665
 C        -8.9027391337        5.0339100735        3.2871484851
 O        -9.4696267979        6.0950839809        3.4025080295
 C        -7.3746958574        4.8045757638        3.1693704844
 C        -7.1270590606        4.4902726130        1.6323759677
 O        -7.8286789288        5.1088541934        0.8130470845
 C        -5.9732072971        3.6025513133        1.0980535460
 C        -6.0573610535        3.5489666521       -0.4324078782
 C        -5.8077454533        4.9539342860       -1.0276480372
 O        -4.9777615772        5.6447900401       -0.4822718633
 C        -6.7203647530        5.4401892008       -2.1769146352
 C        -7.5617596116        6.6481144613       -1.5703286995
 O        -8.7640323807        6.5600358777       -1.4628705768
 C        -6.7976997649        7.9475130551       -1.1363373390
 C        -7.5331670806        8.6502713286        0.0778874876
 C        -8.9556669838        9.1953880733       -0.3192931184
 O        -9.9379185061        8.6596164569        0.1515379388
 C        -9.1055492397       10.3483393962       -1.3133870432
 C        -9.4815664187        9.4462901074       -2.7256825655
 O        -8.7689752563        9.4880680871       -3.6827114272
 C       -10.8683582417        8.7248642705       -2.7810244530
 C       -10.2714825811       11.2768481788       -1.0287778472
 C        -7.7748004759       11.1240133412       -1.5230295283
 C        -5.6907232718        5.9248684181       -3.2650170476
 C        -7.5780626892        4.3839611546       -2.8479782218
 C        -6.5284307372        6.1276332430        3.3841005835
 C        -6.8168465661        3.6253710532        4.0230340619
 C       -14.1693615406        3.4028976405        0.4057425686
 C       -14.4210081408        3.7197691863        2.8568418435
 C       -10.1062024828       -2.7244486756        2.6069321284
 C        -7.8661016350       -1.7941663470        1.9053890173
 C       -12.4732753599       -1.7597300260       -2.4078443366
 C       -11.5579321718       -0.6629482407       -4.6098756627
 H       -11.5614062287        2.2785504371       -3.9231047124
 H       -11.3663795038        2.4442212785       -2.2305970824
 H       -12.8730678547        3.0986816038       -2.8654969792
 H        -8.5881699432       -1.4041005349       -3.1983046693
 H        -9.8222277494       -2.5396391493       -2.5849188886
 H        -8.1269489901       -0.6257909439       -0.7080279195
 H        -7.7664776416       -2.3679966076       -1.0738139662
 H       -11.8699464843       -0.7427260634        2.5396841681
 H       -11.7075463932       -0.9634986139        0.8250193786
 H       -12.3014577785        1.1412021526        0.1599246901
 H       -11.1073952173        1.7542359136        1.2222732481
 H       -11.7611980448        3.3892863101        3.7202799063
 H       -11.3456393695        5.0055966155        3.4074396216
 H        -9.5674027466        3.3025834749        2.0382888253
 H        -9.5801408316        2.9826626319        3.8114327935
 H        -5.8734304170        2.6044512648        1.5188208994
 H        -5.0245623281        4.0951583168        1.3854528744
 H        -7.0794210273        3.2237422590       -0.7017762189
 H        -5.3062228734        2.9387102156       -1.0047124343
 H        -6.7662229142        8.4965610430       -2.1213040584
 H        -5.7337993699        7.7605243009       -0.9143826108
 H        -6.9657430120        9.5822905747        0.4260595402
 H        -7.7291890935        7.9808364857        0.9327218763
 H       -11.4288443566        9.3729146199       -3.4490671497
 H       -11.4077914111        8.5400788432       -1.8379139185
 H       -10.7074638122        7.8191688483       -3.3837975131
 H       -11.2129180376       10.7361156810       -1.0109133143
 H       -10.2814203202       12.0347890159       -1.7655249749
 H       -10.2375231083       11.8014910715       -0.0650070310
 H        -6.9717721151       10.3911184175       -1.5749651265
 H        -7.5892085635       11.8785567436       -0.7767869076
 H        -7.8538030872       11.6710429595       -2.4583085062
 H        -6.2995319317        6.3401900101       -4.1331001184
 H        -5.0288597115        5.0652060898       -3.5394690046
 H        -5.0625215599        6.7526481898       -2.8762091116
 H        -8.1462133921        4.8626032718       -3.6327484236
 H        -8.2987804680        3.8456554667       -2.2420525155
 H        -6.8392548345        3.6839071373       -3.2888414048
 H        -6.6401352153        6.5226142849        4.3945015471
 H        -6.9265106463        6.8765300111        2.6912999103
 H        -5.4473864139        6.0503321688        3.2044222928
 H        -6.9386649077        2.6918456599        3.4497526688
 H        -7.2797301914        3.5224674829        4.9750547979
 H        -5.7304056817        3.8038738676        3.9702727152
 H       -15.1261652426        2.9629014746        0.4585911687
 H       -13.6862256295        2.7648932793       -0.3911035518
 H       -14.1154528613        4.4377595969        0.1335276378
 H       -13.8133755695        4.0972657039        3.7435087014
 H       -15.1152221763        3.0097120760        3.2905027343
 H       -14.9546873660        4.6276168002        2.6092697504
 H       -11.1453437730       -2.8148142862        2.3996236394
 H        -9.9212104496       -2.2952073949        3.6199890955
 H        -9.6791485110       -3.7352129682        2.5369307324
 H        -7.3658668656       -1.2546461317        1.1177955692
 H        -7.4146049501       -2.7796629674        2.0739538275
 H        -7.6819680725       -1.2245571246        2.8308485512
 H       -12.9931854802       -1.3954748844       -1.4740971804
 H       -11.7765108026       -2.5850565527       -2.2110491309
 H       -13.1588258176       -2.2531966890       -3.0900821720
 H       -10.8853082521       -1.4934027389       -4.7207778560
 H       -11.0591559124        0.1833432121       -5.0697370101
 H       -12.4804733759       -0.9252593129       -5.0822898159
 Na       -9.9451608296        6.3894847685        0.9277765199
