117

 C       -12.0379561969        2.1767218445       -2.9091972769
 C       -12.6251318945        0.7468528766       -2.7017423832
 O       -13.8343031960        0.5124553738       -2.4869743660
 C       -11.7345718561       -0.4676575579       -2.8490503269
 C       -10.3206443788       -0.2788149869       -2.2099068723
 O        -9.9675389038        0.6813228522       -1.5475866179
 C        -9.3527156299       -1.4735281875       -2.3662293800
 C        -8.6870364597       -1.6820306257       -1.0102546204
 C        -9.6326860614       -2.2291344191        0.1046963012
 O       -10.6310289269       -2.9516020294       -0.1560322102
 C        -9.3178109344       -1.8142722604        1.5940638983
 C       -10.0505266556       -0.2881056032        1.6864048493
 O        -9.3841370199        0.7337134074        1.6954122700
 C       -11.5458669703       -0.1627303736        1.7967104740
 C       -12.1494324210        1.0564389696        1.0695771506
 C       -13.0501556803        1.8990734340        2.0215193349
 O       -13.5099453168        1.3339660493        3.0053007483
 C       -13.3800513919        3.4517808716        1.7399769977
 C       -12.0289949723        4.2200315893        1.8408008930
 O       -11.5367715108        4.9303126024        0.9353648565
 C       -11.3557056936        4.1475554914        3.1674655593
 C        -9.8569523453        3.7880899040        2.9798919776
 C        -8.9405667361        4.9807122297        3.1767859383
 O        -9.2818473960        6.1807921305        3.0531466054
 C        -7.3705522639        4.7645945058        3.1286125654
 C        -7.1521844481        4.5021125773        1.6389512838
 O        -7.8107768424        5.0881701991        0.8064588704
 C        -6.0029812488        3.6059019927        1.1552494062
 C        -5.9932612443        3.4549702588       -0.3635463118
 C        -5.8112491225        4.8837243886       -1.0319610259
 O        -4.9577167184        5.6210332713       -0.5488891394
 C        -6.6671569818        5.4685427950       -2.2462276268
 C        -7.5730435392        6.5619882528       -1.5998539243
 O        -8.7858995185        6.3731112910       -1.4623370837
 C        -6.9057366127        7.8514337812       -1.2474375077
 C        -7.5227601098        8.5388876130       -0.1034873215
 C        -8.9319500834        9.0395467871       -0.4056234914
 O        -9.9361085089        8.5693987897        0.1696759557
 C        -9.1692775918       10.1491776127       -1.4111703138
 C        -9.4212620258        9.3900978109       -2.7731035599
 O        -8.6207104355        9.4529303663       -3.6678701568
 C       -10.7116088742        8.6122451634       -2.7682165799
 C       -10.4022461599       11.0928799705       -0.9735064545
 C        -7.9228700812       11.0823663568       -1.6719470088
 C        -5.7510383939        6.0357329300       -3.2727961730
 C        -7.5748633529        4.3691961890       -2.7753585399
 C        -6.6864063254        6.1177546705        3.5053707983
 C        -6.8184116831        3.7266203808        4.1288366321
 C       -13.9149089950        3.4812468618        0.2684329921
 C       -14.4271276926        4.0875531650        2.7656670833
 C        -9.9877362394       -2.8610329185        2.5083884136
 C        -7.8588647767       -1.7574608377        1.8337620056
 C       -12.4499007617       -1.7036528803       -2.3008520003
 C       -11.5825199543       -0.6398488124       -4.3577800001
 H       -11.5998551260        2.2661653168       -3.9290866785
 H       -11.2768076207        2.4282484670       -2.2134098387
 H       -12.7891545821        2.8637364785       -2.7118988861
 H        -8.6834663126       -1.1152774085       -3.1311790421
 H        -9.8312182187       -2.3062680989       -2.7366313590
 H        -8.3517956894       -0.7557892867       -0.7055802189
 H        -7.7806909183       -2.3408803375       -1.1151447728
 H       -11.6591355885       -0.1844288273        2.8796827677
 H       -12.0008581085       -1.1341944316        1.5188273794
 H       -12.8736450503        0.7466960797        0.3360296903
 H       -11.3581363893        1.6541226237        0.4766377597
 H       -11.8497554550        3.3823069472        3.8789890728
 H       -11.5197622386        5.1757151193        3.6404318822
 H        -9.6800388571        3.3174022842        2.0045421283
 H        -9.6124039033        3.0361441396        3.7663933693
 H        -6.0841680564        2.5253757145        1.4932890098
 H        -5.0177884101        3.8984794728        1.5928144204
 H        -6.9452359580        3.0338876996       -0.7043198379
 H        -5.1719717484        2.8321883682       -0.6757779908
 H        -6.7431073212        8.4421049829       -2.1388509416
 H        -5.8706105379        7.5968442692       -0.9316964558
 H        -6.9375594726        9.3375782752        0.2641028974
 H        -7.7508027593        7.8743361848        0.7819685247
 H       -11.5577263825        9.3215526275       -2.8234626201
 H       -10.7153987063        8.1679769845       -1.7561099543
 H       -10.8247420296        7.9026242673       -3.5341411707
 H       -11.3701874896       10.5746689268       -0.8010826217
 H       -10.5593951390       12.0184965572       -1.6294563848
 H       -10.1546483234       11.5352546954        0.0186482750
 H        -7.0691785565       10.5599821458       -2.1152576033
 H        -7.6109539163       11.5145958661       -0.6936812750
 H        -8.2563616535       11.9477604690       -2.2400707518
 H        -6.2762374204        6.7231618128       -3.8814264206
 H        -5.3904439535        5.1764176137       -3.8129912449
 H        -4.9343766588        6.6115832611       -2.8221457924
 H        -8.1261634448        4.6703972571       -3.6941604390
 H        -8.3925996075        4.2976207000       -2.0200844055
 H        -7.0630832035        3.4058262896       -2.9067125499
 H        -7.0154623630        6.6411272082        4.3955367420
 H        -6.6983692167        6.8744507564        2.7377545407
 H        -5.6625421052        5.8522709036        3.6369971882
 H        -7.6224092376        3.0123592051        4.2389590008
 H        -6.6033948445        4.2506971565        5.1217976621
 H        -6.0035591452        3.1533655897        3.7224507951
 H       -14.8718072840        2.9825278181        0.0917767056
 H       -13.2037056607        3.0193499995       -0.3213296067
 H       -13.8900412499        4.5215078659       -0.0245739411
 H       -14.2296746795        4.1857661648        3.7666702383
 H       -15.3045944672        3.4003859742        2.8021659975
 H       -14.6610042438        5.1001108712        2.4030707194
 H       -11.0701323770       -2.9141405117        2.3305500275
 H        -9.8503115049       -2.5852003764        3.5086749691
 H        -9.5131054409       -3.8101300604        2.3436799561
 H        -7.4680834988       -0.7294216253        1.6916994372
 H        -7.3265965889       -2.4503274137        1.1638657879
 H        -7.5465706210       -2.1012446882        2.7870828000
 H       -12.4367677578       -1.6539135600       -1.2425535713
 H       -12.0353752549       -2.5863854108       -2.7637666110
 H       -13.4890774144       -1.7425593635       -2.6303256411
 H       -10.8325417106       -1.4171745724       -4.6365972522
 H       -11.2587208170        0.3013820773       -4.8025483165
 H       -12.5929382415       -0.9032895081       -4.7429662838
 Na       -9.8540516441        6.3266646891        0.8091379724
