117

 C       -12.0720345311        2.1599682750       -2.8868843609
 C       -12.6818984964        0.8083450374       -2.6109199527
 O       -13.8507576976        0.6270387977       -2.4497607078
 C       -11.7271650138       -0.4692594959       -2.8203340484
 C       -10.3424358893       -0.2487662844       -2.1291677559
 O       -10.0685058823        0.7301081419       -1.4975968657
 C        -9.3649673369       -1.4653826496       -2.3194404243
 C        -8.6863715531       -1.7576710349       -1.0342835401
 C        -9.6814337710       -2.2111936000        0.0502731941
 O       -10.5978094530       -2.9676415483       -0.1452136181
 C        -9.3903758214       -1.7031473921        1.5533250205
 C       -10.0565596758       -0.2793497946        1.7453132187
 O        -9.3277564281        0.6540236157        1.7028326890
 C       -11.6543313107       -0.2243969775        1.8390384169
 C       -12.2097608338        1.0051323006        1.1475226983
 C       -13.0578219684        1.9442668620        2.0754267194
 O       -13.5476067576        1.5500259323        3.0614009160
 C       -13.2964358667        3.5249523466        1.6603118006
 C       -12.0053396747        4.3257713102        1.8987808182
 O       -11.5141882015        4.8992660558        0.9079231964
 C       -11.3066051967        4.2709545556        3.2663680943
 C        -9.8053693924        3.8537705723        3.1250698101
 C        -8.9340008182        5.0814274069        3.1179516672
 O        -9.4241835820        6.2188185447        2.9996435626
 C        -7.3572982527        4.8195170922        3.2010770946
 C        -7.0538323306        4.4172058665        1.6112920571
 O        -7.7195535060        5.0207979112        0.7948163469
 C        -5.9261511969        3.5120906608        1.1088240861
 C        -5.9451923173        3.4569502849       -0.4581571719
 C        -5.7524723600        4.8907934070       -0.9830926793
 O        -4.8891617701        5.6298391444       -0.5374412929
 C        -6.6780144578        5.3160112204       -2.2235603455
 C        -7.5990314175        6.4517662844       -1.5925012357
 O        -8.7981578197        6.2738230233       -1.4562595475
 C        -6.8941562930        7.7805989086       -1.2600295539
 C        -7.4640813801        8.6269982826       -0.0807007538
 C        -8.9773286259        9.0674642043       -0.3536025478
 O        -9.9173905811        8.5417834172        0.1958216670
 C        -9.1924046006       10.2065469152       -1.3693024704
 C        -9.4275036558        9.3908026682       -2.7876426910
 O        -8.6052180177        9.3677871064       -3.6653025084
 C       -10.7498300891        8.5294395537       -2.9430565767
 C       -10.4566763448       10.9126962457       -0.9513518958
 C        -7.9644298070       11.0877644979       -1.6351490999
 C        -5.7805521052        5.9825906196       -3.3244535173
 C        -7.6439856377        4.2653053212       -2.9010264835
 C        -6.7674861705        6.1648694073        3.5602670633
 C        -6.8980770771        3.6304123023        4.1677376573
 C       -13.7772436056        3.5951945272        0.1952314237
 C       -14.3716071283        4.0274307826        2.5502031528
 C       -10.0472987990       -2.7612212766        2.4461545439
 C        -7.8897243410       -1.5434978839        1.8954033041
 C       -12.4460554705       -1.8157116921       -2.2175848614
 C       -11.4689268230       -0.6889212353       -4.3536349330
 H       -11.5675642423        2.2646298953       -3.8922677204
 H       -11.3604516864        2.4985487821       -2.1488719023
 H       -12.9062172455        2.8510537729       -2.7370321912
 H        -8.6576610772       -1.1800874543       -3.1077065684
 H        -9.9187441893       -2.3681614744       -2.6605043360
 H        -8.0452719084       -0.9376408686       -0.7387232259
 H        -8.0656860118       -2.5554493580       -1.2463456733
 H       -11.9374055514       -0.2998916827        2.8741368361
 H       -12.0359234675       -1.2464078061        1.4712058082
 H       -12.9523848552        0.6994499347        0.3187948674
 H       -11.4444316604        1.5392132827        0.6276044240
 H       -11.7669549836        3.4657427977        3.9075122561
 H       -11.5068924890        5.2387119715        3.7986653102
 H        -9.6517506040        3.3117765886        2.1574947888
 H        -9.5663817652        3.1398674093        3.9063514516
 H        -6.0150368884        2.4584259560        1.4768951848
 H        -4.9908214078        3.8159148284        1.4585360578
 H        -6.7819189900        3.0127307853       -0.9436908251
 H        -5.0483465404        2.9378707902       -0.7685157179
 H        -6.8539387093        8.3621129694       -2.1999686956
 H        -5.8750529961        7.5260770179       -1.1040206166
 H        -6.8182357900        9.4247261961        0.1567942595
 H        -7.6600564934        8.1279830705        0.8835591511
 H       -11.6286075952        9.1498854162       -2.8599678017
 H       -10.7894087182        7.7436074054       -2.1534864182
 H       -10.7512490865        8.1081162762       -3.8999789938
 H       -11.1677380323       10.1504773837       -0.6432329475
 H       -10.9264379488       11.5360528083       -1.6990946434
 H       -10.3101529707       11.5807383168       -0.0760328331
 H        -7.2444096893       10.4770407692       -2.2107382180
 H        -7.4704938854       11.3837490772       -0.6999101608
 H        -8.2244943160       11.9758017854       -2.1427718864
 H        -6.2832832468        6.7655896655       -3.8461033568
 H        -5.4639603003        5.2153054490       -3.9472852274
 H        -4.9893474554        6.4699041730       -2.8137633515
 H        -7.9997737357        4.7466654101       -3.7746442708
 H        -8.5366872091        4.1459922375       -2.3166453360
 H        -7.1936475464        3.2950746483       -3.1916262787
 H        -7.0872496281        6.6361094765        4.5057717193
 H        -6.9667888236        6.9617756947        2.8394256199
 H        -5.6820376968        6.0359350863        3.5984054643
 H        -7.6955076452        2.9193299125        4.2376204119
 H        -6.5941097156        4.0570513101        5.1441493574
 H        -6.1001267225        3.0460115796        3.7263138130
 H       -14.6440864500        2.9519741647        0.0759618567
 H       -12.9710501941        3.3550568548       -0.5581878957
 H       -14.0559030525        4.6478470715        0.0459330777
 H       -14.2319887732        3.7114954331        3.6064732428
 H       -15.3213834804        3.4650076718        2.4197968360
 H       -14.4429338530        5.0980011349        2.5584110103
 H       -11.0906639175       -2.9301515350        2.2778110935
 H        -9.9479435061       -2.5027328815        3.4979197846
 H        -9.4228017415       -3.6699286786        2.2423706745
 H        -7.5519993579       -0.5144904423        2.0983289149
 H        -7.2284418463       -2.0359078964        1.1262868585
 H        -7.6163765242       -2.1118625170        2.7350350224
 H       -12.0960080071       -1.9701612213       -1.1876957308
 H       -12.2875876257       -2.6006136665       -2.9146274818
 H       -13.4993094452       -1.6976817752       -2.1399993056
 H       -10.8710603743       -1.6038180312       -4.6148566989
 H       -10.9653854751        0.1738242662       -4.7574287254
 H       -12.4788009280       -0.7248914658       -4.7924971108
 Na       -9.7693607109        6.3881562901        0.6818264289
