117

 C       -12.2211282869        2.0904543015       -3.5380426993
 C       -12.7127526401        0.9080364523       -2.7826065151
 O       -13.4290403196        1.1097000019       -1.8734686230
 C       -11.9458240927       -0.4487173143       -2.9601227906
 C       -10.6514674816       -0.2916648035       -2.0122611296
 O       -10.4766097954        0.6819469737       -1.3299827604
 C        -9.5795537421       -1.4089301562       -1.9756269366
 C        -8.8711075134       -1.4488858741       -0.6564671858
 C        -9.6338835243       -2.0312455742        0.5265976809
 O       -10.4687976086       -2.8411670519        0.2859472501
 C        -9.5196833423       -1.3614961885        1.9617581650
 C       -10.4206614876        0.0337732957        2.0119423508
 O        -9.9091169077        1.0883581075        2.0965998079
 C       -11.9546424911       -0.1520350395        1.7033101456
 C       -12.5454024475        1.0720562155        0.9961316023
 C       -12.7340318606        2.1567167287        2.0193918502
 O       -12.6480680828        1.9870837525        3.1901833364
 C       -13.0113593343        3.6572456844        1.4604660813
 C       -11.7917616340        4.4723687846        1.8433107088
 O       -10.9675911095        4.6981763399        0.9606678785
 C       -11.3437027007        4.7768535882        3.2864457628
 C       -10.0051510689        4.1020046894        3.4970294267
 C        -8.8321559834        5.0553996073        3.2603694148
 O        -9.1369930570        6.2325952432        3.0734854199
 C        -7.3265837672        4.5754926039        3.1882488852
 C        -7.0779058670        4.3158270062        1.7078039196
 O        -7.6691472431        4.9216557596        0.8818457980
 C        -5.9148385732        3.4502514852        1.1723967879
 C        -5.7515148700        3.3046126321       -0.3258584896
 C        -5.6352046648        4.7249950097       -1.1096991073
 O        -4.8536453579        5.5256339634       -0.6904614604
 C        -6.6317992155        5.1174134454       -2.2490952112
 C        -7.4608122323        6.2210636620       -1.7191621179
 O        -8.6336421558        6.1141352847       -1.5627184674
 C        -6.8509703451        7.5837505814       -1.4746754638
 C        -7.5930936194        8.4052946522       -0.4303959206
 C        -9.0991235906        8.8157979117       -0.7313575289
 O        -9.9898815879        8.3196549345       -0.1048588071
 C        -9.4537004654        9.9465866009       -1.7468392559
 C        -9.4192108721        9.2451409583       -3.1357477432
 O        -8.3902122264        9.1374020144       -3.7987233698
 C       -10.7275749669        8.6410874538       -3.5927675835
 C       -10.8799544897       10.4198565324       -1.3896033818
 C        -8.3942093998       11.0428041956       -1.7398654943
 C        -5.7401064988        5.6180926859       -3.4883334924
 C        -7.5239830354        3.9310671817       -2.8067092200
 C        -6.4712137071        5.6841072276        3.7580710869
 C        -7.1847971662        3.2192174211        4.0604041160
 C       -13.3990640150        3.8022757299       -0.0588133441
 C       -14.2481268621        4.0681600752        2.3777743406
 C       -10.1825094919       -2.2735386974        3.0702346467
 C        -8.0836498401       -1.0611178938        2.3699185174
 C       -12.9124594555       -1.4818697521       -2.4099203489
 C       -11.5124706807       -0.7711698509       -4.3807835764
 H       -11.1713642280        1.9958014572       -3.9171410443
 H       -12.2123648332        2.9018730648       -2.8020158559
 H       -12.7772866938        2.4173753194       -4.4506319589
 H        -8.8484957760       -1.1142571634       -2.7739314118
 H        -9.9534464992       -2.4168954865       -2.1421753641
 H        -8.4679632561       -0.3956857415       -0.4318361969
 H        -7.9255330930       -2.0632743470       -0.7894796668
 H       -12.3206370276       -0.2201462035        2.6928347316
 H       -12.1540850559       -1.1276401213        1.1652422963
 H       -13.4955804596        0.8503313676        0.5336936197
 H       -11.9503385736        1.2869313451        0.1058582799
 H       -12.0490907094        4.2808953282        3.9186930006
 H       -11.4243888563        5.7941606703        3.4586836230
 H        -9.8776818775        3.2048990872        2.9315089635
 H        -9.8003428169        3.6342244216        4.4661549189
 H        -5.9774979729        2.3665516760        1.6067871917
 H        -5.0415061933        3.9797066260        1.5876246340
 H        -6.5060628875        2.7837936612       -0.9294346491
 H        -4.8203158512        2.7152510124       -0.5338554461
 H        -6.8734157945        8.1492167299       -2.4368843464
 H        -5.7852039710        7.6032430981       -1.1363880239
 H        -6.9782548733        9.2296041176       -0.1455122214
 H        -7.7437202061        7.8540179522        0.5950229535
 H       -11.2063272729        8.0301641219       -2.8288396523
 H       -10.5021852130        8.1283637407       -4.5661917278
 H       -11.3721642588        9.4541140714       -3.8295479189
 H       -11.5802789225        9.6410912070       -1.3275665376
 H       -11.3660392020       11.1597786913       -1.9334879277
 H       -10.8070785029       10.7330738293       -0.3665745211
 H        -7.5534522636       10.7327226287       -2.3605094282
 H        -8.0405533660       11.2016198555       -0.7183912488
 H        -8.7553756259       11.9471469590       -2.1102242901
 H        -6.5316247629        5.9878527146       -4.1672932648
 H        -5.2165146961        4.8196689734       -3.9890706247
 H        -4.9801101688        6.3125630200       -3.1066388208
 H        -8.0563837066        4.2925541793       -3.6351779850
 H        -8.2148595267        3.5548927750       -2.1106030949
 H        -6.8704799232        3.1342916805       -3.1447379199
 H        -6.7322841691        5.9343429629        4.8138098268
 H        -6.4758459409        6.6501155869        3.2046825649
 H        -5.4048740235        5.4102248546        3.7722295789
 H        -6.6266799770        2.4656315283        3.5543412237
 H        -8.1396405003        2.6487404776        4.1312167041
 H        -6.7794839029        3.3305508004        5.0607130377
 H       -14.3452309292        3.3080073880       -0.1988934154
 H       -12.5082727942        3.6155884951       -0.7023912540
 H       -13.6921162054        4.8683757729       -0.2143030959
 H       -14.0624562848        3.8525986911        3.4504796045
 H       -15.1862264055        3.6317343065        1.9658118775
 H       -14.4545564684        5.1001943294        2.2153415447
 H       -11.2339780765       -2.5446366564        2.9298451543
 H       -10.0415016728       -1.8349692548        4.0607163590
 H        -9.6527954080       -3.2926961330        3.0886114580
 H        -7.3458579161       -1.2059058404        1.5615786328
 H        -7.6345462655       -1.7930017852        3.0645338327
 H        -7.9509367255       -0.0978254897        2.7300815866
 H       -12.9756787963       -1.5444058376       -1.3051061106
 H       -12.5975521993       -2.4732343451       -2.7004922922
 H       -13.8490738683       -1.1212198938       -2.8222703450
 H       -11.0601549392       -1.7772087198       -4.3814822921
 H       -10.8503191175       -0.0821562373       -4.8101524324
 H       -12.3745848530       -0.8160560969       -5.0536645247
 Na       -9.4064576820        6.2194618975        0.7171211227
