117

 C       -12.2482073318        2.1600507956       -3.7833692974
 C       -12.6495285604        1.0583167278       -2.7071204986
 O       -13.6267945539        1.2077996438       -1.9712309810
 C       -11.9729502181       -0.4667046856       -2.9124634673
 C       -10.6093805270       -0.3533023191       -2.0204159292
 O       -10.3633885447        0.7550369433       -1.4719380474
 C        -9.5547766527       -1.5275742576       -1.8921820198
 C        -8.8173263317       -1.4445902320       -0.4854841897
 C        -9.8014177660       -1.9495913913        0.6334067248
 O       -10.5455304211       -2.8836438856        0.3908292992
 C        -9.5833232501       -1.2747887744        2.0483405342
 C       -10.4541053834       -0.0298824290        2.0043210277
 O        -9.9535652840        1.1028858009        2.1584163899
 C       -11.9630011223       -0.2108884331        1.7365869411
 C       -12.5618405344        1.0329892888        1.0706535581
 C       -12.7394048356        2.1558559512        1.9966791758
 O       -12.4980143325        2.0457128680        3.2058574918
 C       -13.1166959826        3.6520499630        1.4913851746
 C       -11.7762848060        4.4492233106        1.8006937558
 O       -11.0407504901        4.7524170861        0.8894481694
 C       -11.3653438180        4.7804419249        3.2604598648
 C       -10.0470362138        4.0947860220        3.5990009085
 C        -8.8049747784        5.0387624281        3.3039829402
 O        -8.8577334791        6.2183214159        3.0296023889
 C        -7.3457642729        4.4842279156        3.2909057719
 C        -6.9414082794        4.3492382379        1.7064655867
 O        -7.6368331574        4.8742443285        0.8399444477
 C        -5.7523523781        3.4376340230        1.2637584551
 C        -5.8177000506        3.3044577101       -0.2270533569
 C        -5.6970749015        4.7110676930       -1.0236852106
 O        -4.8834715633        5.4381576456       -0.5453285087
 C        -6.6179288639        5.0823222729       -2.3001699422
 C        -7.5449280624        6.2389228346       -1.7824849212
 O        -8.7100737174        5.9619088809       -1.4836315959
 C        -6.8595343717        7.6876545911       -1.5228897778
 C        -7.5965171266        8.4923355641       -0.4297709301
 C        -9.0234921900        8.7937503563       -0.7218338207
 O        -9.9388345003        8.1732981642       -0.2110124316
 C        -9.4094092825        9.8847882842       -1.7887671262
 C        -9.4705473861        9.2576379786       -3.3014467135
 O        -8.4118578118        9.1524253407       -3.9261936146
 C       -10.7661372927        8.6269361518       -3.8079758969
 C       -10.8639651401       10.4633570291       -1.5334986679
 C        -8.3233646421       11.0717550830       -1.7771203205
 C        -5.7936366330        5.7032262797       -3.5002951839
 C        -7.5355263819        3.9655242090       -2.7567687210
 C        -6.3372358176        5.5194408865        3.7927260562
 C        -7.1729784851        3.1544150018        4.0314259045
 C       -13.4967046688        3.6736345653        0.0071924219
 C       -14.2715331490        4.2165973958        2.4241353511
 C       -10.1891491227       -2.2408790123        3.0438417108
 C        -8.1018837640       -0.8498467069        2.3195755870
 C       -12.9340242667       -1.5185169206       -2.3868708524
 C       -11.4534653804       -0.7940881726       -4.3437636315
 H       -11.2787249592        2.1335143958       -4.0822722070
 H       -12.4319105693        3.1955750535       -3.5262449167
 H       -12.7888986173        1.9043837735       -4.7267191886
 H        -8.9180008943       -1.4963818086       -2.7069767933
 H       -10.0726015665       -2.4917069184       -1.8424217964
 H        -8.4004144042       -0.4048948031       -0.2825328408
 H        -7.9784776072       -2.0759588947       -0.4802912595
 H       -12.3207159219       -0.3684357288        2.7295258065
 H       -12.0556576058       -1.1573296715        1.1300256494
 H       -13.5552815513        0.9253145356        0.4998680697
 H       -11.9160713346        1.2585980231        0.2811211167
 H       -12.1597632242        4.4557153073        3.9368098460
 H       -11.3435557200        5.9110002722        3.3010428529
 H        -9.8450039617        3.1167730841        3.1544363200
 H        -9.8932242452        3.7743487042        4.6005338618
 H        -5.9860909283        2.4277196520        1.7264039395
 H        -4.8031139834        3.8996528551        1.6873726919
 H        -6.6683930312        2.8345479892       -0.6775593390
 H        -4.9788101293        2.6667602933       -0.5925622110
 H        -6.8250246019        8.3675863103       -2.4574124006
 H        -5.8475189450        7.6372030185       -1.1430061604
 H        -7.0396709639        9.4232291543       -0.2187543422
 H        -7.6209642658        7.9931287379        0.5399424243
 H       -10.8051898179        7.7166475024       -3.2492317530
 H       -10.6473277093        8.4432160049       -4.8514188842
 H       -11.7522025334        9.2085759933       -3.6341840917
 H       -11.7089421198        9.7675520537       -1.4350642224
 H       -11.1304054842       11.1506862315       -2.3010873241
 H       -10.9467651649       11.0157426062       -0.6022121420
 H        -7.4451075912       10.8153684230       -2.3751263208
 H        -8.0104382701       11.3057426790       -0.7765548245
 H        -8.7442652551       12.0000730805       -2.1667914569
 H        -6.5976245662        6.1721495729       -4.1287242908
 H        -5.1421099120        5.0285606364       -4.1030256943
 H        -5.1056520870        6.3513039812       -2.9779465924
 H        -8.2558355876        4.4639388948       -3.3892752052
 H        -8.1254440830        3.5271851894       -1.9548113004
 H        -7.0408521181        3.1558247119       -3.3080729812
 H        -6.4674198277        5.8487234506        4.8162465606
 H        -6.4108418912        6.4132781512        3.1709771544
 H        -5.2676019991        5.2529235961        3.7023076373
 H        -6.1874324530        2.5936936065        3.9635781390
 H        -7.8628143663        2.3945792096        3.7615472509
 H        -7.3013588161        3.3966247316        5.1077709578
 H       -14.4109618017        3.1456502561       -0.1091148318
 H       -12.6080497245        3.4391427702       -0.6152025690
 H       -13.7643531217        4.6790728544       -0.2049801300
 H       -14.0575171700        3.7804927569        3.4361222058
 H       -15.1658332608        3.9064196268        2.0279542618
 H       -14.3539445695        5.2804531983        2.4447113571
 H       -11.1557081552       -2.5925176590        2.7722410930
 H       -10.1869473024       -1.8463297526        4.0906143261
 H        -9.6094633039       -3.1542648644        3.0530568730
 H        -7.4241292941       -1.0488003018        1.5599704644
 H        -7.6401436247       -1.3890001643        3.1050194959
 H        -8.0307329185        0.2319144498        2.5687103084
 H       -13.3691752812       -1.1948863795       -1.4080104751
 H       -12.3776256225       -2.4101202594       -2.1027774961
 H       -13.7199413368       -1.6020493230       -3.1233067873
 H       -11.0433023397       -1.7878861149       -4.4226983416
 H       -10.7745453614       -0.0865091673       -4.8019266782
 H       -12.3394716096       -0.8014825661       -4.9441213741
 Na       -9.3875174975        6.1995331492        0.7506605369
