117

 C       -12.3093806804        2.0531798206       -3.9121339518
 C       -12.6455098400        0.9732721749       -2.9142025923
 O       -13.5771269187        1.2390724109       -2.1344774574
 C       -11.9375955284       -0.3638366025       -2.8141433542
 C       -10.6020796456       -0.3098089992       -1.9832962316
 O       -10.2244385988        0.7669438584       -1.5772190708
 C        -9.7679321760       -1.5555319184       -1.8367961127
 C        -8.8932000491       -1.4492034166       -0.5199776491
 C        -9.7035544046       -1.9541684342        0.6827567669
 O       -10.6094855933       -2.7904245241        0.5725149418
 C        -9.6034544378       -1.2767019419        2.0543382221
 C       -10.5272212286        0.0162393215        2.0039928004
 O       -10.0546958242        1.1388554943        2.1854212097
 C       -12.0099683516       -0.1732616898        1.7406009135
 C       -12.5942558672        1.0307894008        1.0572784056
 C       -12.6934541904        2.1974196879        2.0822660007
 O       -12.4261667137        2.0896842332        3.2793060372
 C       -13.1754946161        3.6376311462        1.6218159244
 C       -11.7878635340        4.4502447368        1.7553376520
 O       -11.2249075171        4.7660108354        0.7275591446
 C       -11.3084695074        4.7818471550        3.1849521663
 C        -9.9484913991        4.2291667187        3.6593480113
 C        -8.7063324927        5.0430307281        3.3169380072
 O        -8.8339478000        6.2175054154        3.0396423015
 C        -7.3124130061        4.3606604964        3.2860463613
 C        -6.9264771608        4.1556756450        1.7286182762
 O        -7.4751761168        4.8314036924        0.8691261434
 C        -5.6721728662        3.4253378791        1.2558766157
 C        -5.8957641724        3.2485124526       -0.2618271064
 C        -5.7266171847        4.6487158490       -0.9577667460
 O        -4.9344668793        5.4969689794       -0.5430064446
 C        -6.6122429726        5.1399798373       -2.2214852914
 C        -7.5388615720        6.2348833956       -1.6304134210
 O        -8.7447841541        5.9794377207       -1.4765328143
 C        -6.9569521204        7.6144381488       -1.5469736355
 C        -7.5883570135        8.5406918031       -0.4841463121
 C        -9.0559689020        8.7996970444       -0.8400738819
 O        -9.9724048766        8.1402403541       -0.3263282000
 C        -9.4243282341        9.9039462599       -1.9194978845
 C        -9.4330527591        9.1388539923       -3.3425246639
 O        -8.4411936634        9.2158311807       -3.9918007623
 C       -10.7218398576        8.6108845168       -3.9411138665
 C       -10.7206350457       10.5506128065       -1.5627951207
 C        -8.3937191374       11.0166655934       -1.8742214575
 C        -5.7538089789        5.6795218744       -3.3873651773
 C        -7.4742363457        3.9638836119       -2.7526253586
 C        -6.2270631910        5.3676750751        3.8339097994
 C        -7.1234805256        3.0470476907        4.0151150298
 C       -13.5380442055        3.5975900938        0.1395130101
 C       -14.2603579832        4.2960049145        2.4379524984
 C       -10.1184410593       -2.2667352195        3.1327617698
 C        -8.1734401469       -0.8076551881        2.3424576806
 C       -12.8535294548       -1.4975881393       -2.3028260298
 C       -11.4898262683       -0.7130218530       -4.2266871760
 H       -11.2379652184        2.2691124970       -3.9149633271
 H       -12.7637514115        2.9688001466       -3.6585159972
 H       -12.5022327936        1.7908996311       -4.8919568067
 H        -9.0806276350       -1.4562602144       -2.6555365579
 H       -10.2659182145       -2.4985982525       -1.9432276749
 H        -8.7112383971       -0.4488252389       -0.3385411328
 H        -7.9307171607       -1.8769363882       -0.6839200176
 H       -12.5736830908       -0.3606701174        2.7101500243
 H       -12.0016369801       -1.0390989824        1.1339095274
 H       -13.6248594058        0.8558895544        0.6784940621
 H       -12.0264703276        1.2074695198        0.1267771610
 H       -12.1105397315        4.4495108698        3.9054718741
 H       -11.3278764547        5.9449663659        3.1925894603
 H        -9.6650877333        3.1781046300        3.4801291874
 H        -9.9217763949        4.1570492174        4.7456053323
 H        -5.5424452746        2.5290341566        1.7814353407
 H        -4.8870376139        4.1798251605        1.4880641764
 H        -6.8155847458        2.8608908225       -0.6619982194
 H        -5.1541713787        2.5872321500       -0.6749282626
 H        -7.1294012716        8.0814665168       -2.5409587397
 H        -5.8713821743        7.5777385969       -1.3656542568
 H        -7.0283805240        9.5127128777       -0.4537517054
 H        -7.5658449615        8.1627807043        0.4752448373
 H       -10.8209063952        7.5292277162       -3.7344884573
 H       -10.6472922526        8.8049346935       -4.9930646276
 H       -11.6009410934        9.1151119650       -3.5487978186
 H       -11.5154410290        9.8170202915       -1.3100193806
 H       -11.0972348669       11.1063372783       -2.4770654839
 H       -10.7665988278       11.2574873014       -0.7353379113
 H        -7.4385881318       10.6826430880       -2.2625411095
 H        -8.2939987830       11.4021336112       -0.8641201634
 H        -8.7393238808       11.9087578530       -2.4740782108
 H        -6.4396264325        6.0745106855       -4.1134884374
 H        -5.2041185525        4.8089494870       -3.8185447117
 H        -4.9209956086        6.2737009843       -3.0016913642
 H        -8.2910126108        4.3371173671       -3.4450529609
 H        -8.0608941613        3.5327664290       -1.8879355237
 H        -6.9045161097        3.1425958339       -3.1903216437
 H        -6.4259560395        5.5186327107        4.8753679759
 H        -6.3281016702        6.3298371595        3.3639222745
 H        -5.1797193928        5.1543275065        3.7740486002
 H        -6.1504785070        2.8915672388        4.5179979523
 H        -7.2768381296        2.1117223068        3.4748653630
 H        -7.8011675098        3.1056162841        4.8781670700
 H       -14.3933626503        2.9282509286        0.0114695581
 H       -12.6738885349        3.3387876498       -0.3727870513
 H       -13.8395415893        4.5715252443       -0.1782386452
 H       -14.1870784819        3.9369289646        3.4059207436
 H       -15.1780353577        4.0195028469        1.9370459446
 H       -14.2673011232        5.4048309079        2.4012469655
 H       -11.0700960019       -2.7227318358        2.8686384059
 H       -10.1961050425       -1.7540246400        4.0746554295
 H        -9.4974467722       -3.0836710731        3.2780969402
 H        -7.4295047482       -1.1208299675        1.6402440764
 H        -7.8172315720       -1.1945866785        3.2663087840
 H        -8.1004336436        0.3006610229        2.4657392094
 H       -13.6471075599       -1.1219871538       -1.6992786037
 H       -12.3112408313       -2.1592782482       -1.6220988807
 H       -13.2740282157       -1.9393896624       -3.2133238150
 H       -11.1386244031       -1.7144578258       -4.3342474753
 H       -10.7539253778       -0.0425549683       -4.7372156011
 H       -12.4174055949       -0.6898655468       -4.7859173887
 Na       -9.4380363970        6.2539645978        0.8037508617
