117

 C        -6.5204978219       13.0956818206       -1.2622665891
 C        -6.5209225819       11.7439552079       -2.0252732595
 O        -7.5834679883       11.1121207681       -2.1861147520
 C        -5.0930168556       11.3056764472       -2.4856269598
 C        -4.5705983121       10.6201687477       -1.0898259922
 O        -4.2435184940       11.2868915534       -0.0922028575
 C        -4.5854566355        9.0970343520       -0.9324731764
 C        -5.7495435675        8.8056878285       -0.0535242076
 C        -5.8546263021        7.3143476298        0.3774087762
 O        -5.6391428253        6.4454633099       -0.4155590245
 C        -6.1995399955        7.1141567948        2.0088507061
 C        -7.7293960398        7.3160738222        2.0830409722
 O        -8.1702981471        8.3519343205        2.4910019358
 C        -8.6919633573        6.3259620835        1.4213440908
 C       -10.1947048706        6.5135336934        1.7920938524
 C       -10.9571901817        5.3170140781        1.2063509433
 O       -10.6487226620        4.1901996356        1.4765037970
 C       -12.1695820765        5.6552790975        0.3489492483
 C       -13.0116151272        4.3653277295        0.1129996644
 O       -12.5574676766        3.3624499025       -0.4163213578
 C       -14.5896770611        4.3830410376        0.7284527348
 C       -15.0584937055        2.9691805759        0.6643954124
 C       -14.2430392491        2.0114064521        1.5632178419
 O       -13.2935937286        2.3620003796        2.2643736541
 C       -14.6975201043        0.5078654936        1.6376576687
 C       -13.6948955597       -0.3331597177        0.7308101305
 O       -12.6103076536        0.0295737378        0.2409336438
 C       -14.0738537549       -1.8017650415        0.6211712979
 C       -13.0883256981       -2.7976735398        0.0224102612
 C       -12.5265928287       -2.4689604163       -1.4542302105
 O       -12.9017935518       -1.4349001872       -1.9613735835
 C       -11.4157184103       -3.2682207671       -2.1057293644
 C       -10.2182048721       -2.3374491235       -1.9081821193
 O        -9.2896889112       -2.6173584059       -1.1848179073
 C       -10.1663037018       -0.8863476390       -2.8089885413
 C        -8.8599202398       -0.1844405302       -2.3984321343
 C        -9.0367023088        0.7146897778       -1.0958892593
 O        -9.8091082934        1.6591009214       -1.1694145221
 C        -8.0359737895        0.5426321494        0.1376887989
 C        -8.8965091895       -0.0851636524        1.3374602504
 O        -9.8465702230        0.5705037721        1.7590675286
 C        -8.5153256116       -1.5138979477        1.7459697571
 C        -6.7912458197       -0.2997690688       -0.2119954385
 C        -7.4419088667        1.9008827461        0.5098787410
 C       -11.2962936227       -4.7495611113       -1.4865404759
 C       -11.7356216312       -3.5108210364       -3.6111000140
 C       -14.7780926254       -0.1323373719        2.9900647900
 C       -16.0925997345        0.1689681973        0.9212570157
 C       -13.0742618134        6.9337587760        0.7954977273
 C       -11.4043729968        6.0536334420       -0.9983356685
 C        -5.9124195372        5.6519790103        2.4648845004
 C        -5.6435136430        8.0874558177        3.0700075382
 C        -5.2680420569       10.1970730564       -3.6410087827
 C        -4.1501859032       12.3971499167       -3.0912126120
 H        -7.2062523493       13.6666461609       -1.9361991706
 H        -5.4879339737       13.4584353889       -1.1551718733
 H        -6.9621562397       13.0946644033       -0.2957035480
 H        -3.6982441379        8.9428710199       -0.3598224234
 H        -4.3850880047        8.5818572105       -1.8446229288
 H        -6.6042594426        9.1324733179       -0.6222812699
 H        -5.8108031795        9.4002185913        0.8343481408
 H        -8.4193048083        5.3336681122        1.6532039659
 H        -8.5766108550        6.4037472018        0.3340651411
 H       -10.5778893775        7.4591134901        1.6179129716
 H       -10.1747643205        6.4108028286        2.8674049241
 H       -15.3155349651        4.9751891457        0.1721227778
 H       -14.4972737386        4.9354157253        1.6394675646
 H       -15.1456736996        2.6207240827       -0.3494910181
 H       -16.0505937125        2.9118546734        1.0494983922
 H       -15.0612345262       -1.9007913990        0.1265903009
 H       -14.3765289794       -2.0481230477        1.6501759808
 H       -13.5848238225       -3.7401578499        0.0435688716
 H       -12.2470914624       -2.9930271885        0.6437452707
 H       -11.1175851745       -0.3037001061       -2.8104402188
 H       -10.0561718917       -1.2502195533       -3.8299631168
 H        -8.6624015842        0.5222746398       -3.2323400766
 H        -8.0662492544       -0.9258867031       -2.2697986017
 H        -8.8918989242       -2.1277602993        0.9613353526
 H        -8.9947823800       -1.8240728731        2.7700761826
 H        -7.4379646998       -1.6172150164        1.8752994484
 H        -6.2930282587        0.1258620604       -1.0175422813
 H        -7.0087437961       -1.4410411638       -0.3831365813
 H        -6.1241879878       -0.1754786430        0.6604691612
 H        -8.2956897506        2.6164154918        0.5836631309
 H        -6.8378327564        2.3908746638       -0.2793464134
 H        -6.9677375720        1.8092357398        1.4496586648
 H       -12.2223741332       -5.2563082965       -1.3832931487
 H       -10.8142330528       -4.9722004163       -0.6033669782
 H       -10.8291221128       -5.3970474165       -2.2559530698
 H       -11.6975960421       -2.7204068927       -4.3387675610
 H       -12.7447599248       -4.0206743973       -3.7155319276
 H       -11.0467250299       -4.3410132277       -3.9954467052
 H       -15.0787410741        0.5636995393        3.7556540388
 H       -13.8739759073       -0.6259590744        3.3355895897
 H       -15.4731402842       -0.9512222614        2.9330797112
 H       -16.8304920499        0.8911293490        1.2743566713
 H       -16.5015831349       -0.7775147140        1.2381965504
 H       -16.0097518056        0.0655505141       -0.2310590914
 H       -13.8172403873        7.1767852252       -0.0790462445
 H       -12.5193180964        7.8427606752        1.0844247196
 H       -13.6633427957        6.7347293058        1.6131711884
 H       -10.8510865933        5.1483915953       -1.3072277808
 H       -10.7943455919        6.9897444627       -0.9332197899
 H       -12.0419354141        6.2523133039       -1.8450429466
 H        -4.9034855031        5.4612182695        2.8031823478
 H        -6.2216886813        4.9240147505        1.7100410575
 H        -6.4802926804        5.5093101112        3.3934097490
 H        -5.8722214292        9.1540509616        2.9082688400
 H        -4.5025233184        8.0899047153        3.1142378545
 H        -6.0281966665        7.9385385562        4.0779432571
 H        -5.9664342922        9.4702357234       -3.2431329014
 H        -4.3186907019        9.7776719492       -3.6412831159
 H        -5.5771360785       10.6482786641       -4.6066561295
 H        -4.6810006122       13.3408254694       -3.1747398391
 H        -4.0241162313       12.1087031176       -4.1196015196
 H        -3.1840211749       12.5926745652       -2.6389322433
 Na      -11.2445114953        1.9892491791        0.7596347006
