117

 C       -12.2646551534        2.0586116585       -4.2075584508
 C       -12.5724072267        1.0190600593       -3.1232959272
 O       -13.4956294309        1.3020302664       -2.3226262973
 C       -11.8525144212       -0.4205189308       -2.8813912463
 C       -10.5876883684       -0.1668197085       -2.0629358984
 O       -10.1828429647        0.9688339255       -1.8411375357
 C        -9.7424884628       -1.4344642087       -1.7092962754
 C        -9.0120187504       -1.4996276323       -0.3428229789
 C        -9.8601344833       -1.9086773526        0.8633856679
 O       -10.7606468209       -2.7523870281        0.7373607982
 C        -9.6159885334       -1.1992837961        2.2118158420
 C       -10.5375992359        0.0282498526        2.0831082003
 O       -10.0361931183        1.1877704182        2.1158789652
 C       -12.0243235676       -0.1973055318        2.0366443214
 C       -12.8349851910        0.9923132181        1.4378393120
 C       -12.7538577189        2.2451914013        2.3258211354
 O       -12.6573146626        2.1317762591        3.5545712755
 C       -13.0543487333        3.7471644074        1.7465862337
 C       -11.8139259815        4.6021202985        1.7924146161
 O       -11.3527083672        4.9421775619        0.7199580997
 C       -11.0905798035        5.0673902055        3.1878704577
 C        -9.8888977118        4.1337700266        3.3010797446
 C        -8.6200205194        4.9595258946        3.2692214375
 O        -8.6258813842        6.1531698193        3.0521769851
 C        -7.2420719611        4.1321154131        3.2498408009
 C        -6.9189980785        4.1492446903        1.7485291248
 O        -7.4580933644        4.8690128308        0.8861042827
 C        -5.7829551998        3.2670725870        1.2579357423
 C        -5.6732540281        3.1879813833       -0.2191630727
 C        -5.7072572137        4.6529909119       -0.9172620200
 O        -5.0300530060        5.5496549406       -0.4095598434
 C        -6.5115971348        4.9355751625       -2.1846288954
 C        -7.4769642534        6.1253847741       -1.7146313719
 O        -8.6511863022        5.8325858311       -1.4486918305
 C        -6.9405176224        7.5634159628       -1.5444519344
 C        -7.7227399475        8.4661964627       -0.6245962031
 C        -9.1726383854        8.9439612872       -1.0268990332
 O       -10.1643617764        8.4265322094       -0.5316840934
 C        -9.4360372315       10.0131708371       -2.1232125187
 C        -9.3950947844        9.1564520252       -3.4999845250
 O        -8.3787786823        9.0768195465       -4.1167733450
 C       -10.6842602743        8.5548943302       -4.0643493211
 C       -10.7473601118       10.7097061421       -1.9690411314
 C        -8.3974391124       11.0964796976       -2.1769794530
 C        -5.5041849775        5.4186310250       -3.3066160997
 C        -7.3999664328        3.8368171203       -2.7235125786
 C        -6.1988492072        4.9958365543        4.0248828579
 C        -7.2523988934        2.7226195576        3.8487672286
 C       -13.6397665147        3.6634078885        0.3166202025
 C       -14.1357645763        4.2535708660        2.7179397714
 C       -10.1157244427       -2.1084127265        3.3967262130
 C        -8.1095413810       -0.7126832226        2.3537737452
 C       -12.9231816404       -1.4019200097       -2.1284877670
 C       -11.5377310462       -1.0690719478       -4.2301973588
 H       -11.3986799645        2.7034244865       -4.0266045881
 H       -13.1156544478        2.8014154903       -4.1589978528
 H       -12.0664309509        1.6751043988       -5.2399124142
 H        -8.9856963344       -1.5611461300       -2.4538444884
 H       -10.4209288207       -2.3439146249       -1.7929314746
 H        -8.6157226934       -0.4209906719       -0.2297877105
 H        -8.0805431670       -2.1129227785       -0.4003781501
 H       -12.4479909857       -0.2919968971        3.0370374728
 H       -12.0947294003       -1.1275154611        1.4402815722
 H       -13.9075635796        0.6050743845        1.3508677376
 H       -12.5713645183        1.2401178060        0.4713925017
 H       -11.6877707978        4.8881549701        4.0212489176
 H       -10.8486747788        6.1001532738        3.1164138371
 H        -9.6861046456        3.3546896259        2.5401524962
 H        -9.9239477831        3.5195781034        4.1808624428
 H        -5.8265724889        2.2352516776        1.6866054030
 H        -4.9778907749        3.9201325677        1.7819456374
 H        -6.4573148785        2.5620117068       -0.6814303088
 H        -4.7011889185        2.6459681880       -0.4286317570
 H        -6.9420024234        8.0577122542       -2.5822449698
 H        -5.9573949023        7.5925462059       -1.1228775630
 H        -7.1559860742        9.4548089927       -0.5383198896
 H        -7.7714818870        7.9545601646        0.3399557753
 H       -10.5000581364        7.5465467387       -4.4037490638
 H       -11.0043021073        9.1685780840       -4.8849043885
 H       -11.4970843701        8.6064013956       -3.2836914901
 H       -11.5787040947       10.0456260914       -1.8611935452
 H       -10.9340555994       11.4157250083       -2.7326808232
 H       -10.7546684704       11.3071510729       -1.0993512290
 H        -7.4525720308       10.6568016947       -2.4224057324
 H        -8.3414383068       11.6162973071       -1.2603839090
 H        -8.6939786691       11.8810034191       -2.8912980856
 H        -6.1216295002        5.6508794506       -4.1658685421
 H        -4.8693112985        4.5497789998       -3.5135236653
 H        -4.8741754275        6.2315410319       -2.9902960214
 H        -7.6133220752        4.0302139675       -3.7444656622
 H        -8.3342264108        3.6779442471       -2.2511445603
 H        -6.8644935177        2.9341064373       -2.6683106204
 H        -6.2534023082        4.9960063108        5.1156495724
 H        -6.1950677109        6.0106984687        3.6108551589
 H        -5.1341246981        4.7162838180        3.8179521424
 H        -6.4623239846        2.6625831450        4.6414836506
 H        -7.0995697017        1.9629525731        3.1476198674
 H        -8.1001424854        2.4297159704        4.4583032488
 H       -14.5077289420        2.9446362223        0.3417124913
 H       -12.8491574440        3.1791396382       -0.3162805672
 H       -13.8182300038        4.6944918392       -0.0343527791
 H       -13.6319565204        4.2732599238        3.6889412534
 H       -14.9160109849        3.5123034649        2.7321150272
 H       -14.5070460374        5.2750545439        2.4353010889
 H       -11.1152109782       -2.5468645543        3.1962243149
 H       -10.1407370980       -1.5388054892        4.3887871722
 H        -9.4797091171       -2.9668101089        3.5790985684
 H        -7.4121565904       -1.4904146431        2.4885609997
 H        -8.0265237882        0.0207313930        3.1436758707
 H        -7.7084015494       -0.1212307598        1.4572981513
 H       -13.8244365691       -1.5577169782       -2.7502691420
 H       -13.2800971964       -0.8681833775       -1.2312862023
 H       -12.4653623439       -2.3524136573       -1.8240223464
 H       -11.0895141642       -2.0455885790       -4.1023135932
 H       -10.7618380009       -0.5060273602       -4.7865629235
 H       -12.4037764731       -1.2140983622       -4.8472227572
 Na       -9.5524576914        6.4464426538        0.7620623963
