117

 C       -12.1700427185        1.9238847862       -4.2462552887
 C       -12.6413169354        0.9903703407       -3.1403196096
 O       -13.4321932497        1.3738115189       -2.3247997763
 C       -11.9267772678       -0.4185361120       -2.9469784842
 C       -10.5298243828       -0.1983320780       -2.0926060873
 O       -10.1320423189        0.8758998736       -1.8396159682
 C        -9.7266737104       -1.4231159072       -1.7184472937
 C        -9.0789837859       -1.3559700791       -0.3773403403
 C        -9.9095472484       -1.8860465354        0.8337015628
 O       -10.7623749454       -2.7507303480        0.7701585425
 C        -9.5708672018       -1.1613455420        2.2177186454
 C       -10.5214973102        0.1196278437        2.1476483180
 O       -10.0327636773        1.1864526368        2.0465339436
 C       -12.1208509005       -0.0717391912        2.2588140265
 C       -12.8663504744        1.0866980770        1.5372086593
 C       -12.8220937324        2.2784770383        2.4838424314
 O       -12.6472497229        2.1122733245        3.6499333362
 C       -13.1082986831        3.6952331197        1.8710200394
 C       -11.8548008144        4.6376518288        1.8084707096
 O       -11.3250503776        5.0537730567        0.7932301291
 C       -11.1965469687        4.9713706811        3.1021310957
 C        -9.9108612994        4.0731650963        3.1692152960
 C        -8.6464740713        4.9478646489        3.2337393545
 O        -8.5976858559        6.1423412290        3.0647765891
 C        -7.2666296296        4.0966638525        3.2152496325
 C        -6.8863183547        4.1493016349        1.7225997926
 O        -7.5234796597        4.8508466767        0.9817724411
 C        -5.6391252151        3.2247649928        1.2098533880
 C        -5.6351690465        3.2310583461       -0.3005425192
 C        -5.6162198313        4.6486623468       -0.8536566914
 O        -4.9901931841        5.5442604079       -0.3052907826
 C        -6.4804045812        4.9217638617       -2.1850960048
 C        -7.4562653998        6.1492937979       -1.7306776364
 O        -8.5839687483        5.7771616598       -1.4495673003
 C        -6.9883858094        7.5678738179       -1.6456524120
 C        -7.7373785239        8.5884886911       -0.6307028594
 C        -9.2123592467        8.9153539218       -1.1052965198
 O       -10.1377677958        8.3849509948       -0.4549966826
 C        -9.4241334165       10.0406982579       -2.1925874127
 C        -9.3787443863        9.1573727697       -3.6265566748
 O        -8.3332525297        8.9500773972       -4.1570451236
 C       -10.6956302508        8.5275767512       -4.0689385178
 C       -10.7951616435       10.7719141117       -2.1218188860
 C        -8.2945579744       11.0937646380       -2.1933013995
 C        -5.5395943211        5.3963804255       -3.3106677093
 C        -7.3386197256        3.7117406397       -2.7434899391
 C        -6.2203241089        4.8941597091        4.0236970963
 C        -7.3877306086        2.6976201467        3.8416493261
 C       -13.6577327741        3.6602642841        0.3674989143
 C       -14.2185140705        4.3217315219        2.8570301114
 C       -10.0532064348       -2.0316617836        3.3870938027
 C        -8.1381464346       -0.7507634559        2.4709034166
 C       -12.9431535860       -1.3354641617       -2.1277318399
 C       -11.5909659873       -1.1451559922       -4.2506178799
 H       -11.1951998108        2.4157885249       -3.9334691634
 H       -12.8180884169        2.7415301352       -4.3800918619
 H       -11.9160197322        1.4865597629       -5.1488140636
 H        -8.9203271278       -1.4199606511       -2.4186809799
 H       -10.2198910355       -2.3545077130       -1.8614923161
 H        -8.8137080881       -0.3704138421       -0.2677585418
 H        -8.1026749502       -1.8869684294       -0.3799275118
 H       -12.4148619373       -0.0592557861        3.3552613148
 H       -12.3694349194       -0.9575409371        1.7862492350
 H       -13.8820080227        0.7371955042        1.3677702623
 H       -12.4528553530        1.2563278229        0.5051623121
 H       -11.9077173141        4.8041533988        3.9413114760
 H       -10.9067163450        6.0411118796        2.9975996946
 H        -9.7007336498        3.3570260865        2.3644996235
 H        -9.8689622724        3.4527334111        4.0508980343
 H        -5.8779570965        2.2124630090        1.5687547446
 H        -4.7234796171        3.6576531715        1.7267306591
 H        -6.5609569735        2.7803778827       -0.7313331820
 H        -4.8022170061        2.6492649917       -0.6982618786
 H        -7.0278143548        8.0101959333       -2.6694235682
 H        -5.9264976503        7.5645426977       -1.2766384362
 H        -7.2120943229        9.5790640841       -0.5003882855
 H        -7.8110960342        8.0494213494        0.2677329578
 H       -10.4415092841        7.6480403292       -4.7346822096
 H       -11.2486474519        9.2754846177       -4.6675464274
 H       -11.2761033504        8.2825948602       -3.2560136356
 H       -11.5817636524       10.0635415275       -2.1238524658
 H       -10.9406129169       11.4966122198       -2.9239320140
 H       -10.9039170039       11.3716625648       -1.2664215492
 H        -7.3719783831       10.6481462024       -2.4650113628
 H        -8.2012544417       11.4535673636       -1.1868999758
 H        -8.5411180580       11.9938165848       -2.7617524572
 H        -6.1747481264        5.5768563949       -4.1712048201
 H        -4.9022078216        4.4911370636       -3.5166780213
 H        -4.9100798729        6.3090635604       -3.0739798235
 H        -7.8737224011        3.9472624294       -3.6645305316
 H        -8.0967966089        3.4001186017       -2.0448805416
 H        -6.7468285899        2.8719865655       -2.9660249157
 H        -6.2892516926        4.8678713982        5.1231543030
 H        -6.0425936788        5.9121579322        3.6410643050
 H        -5.2368425475        4.4485200018        3.8161677670
 H        -6.4653394566        2.4493357076        4.3327510372
 H        -7.6418689968        1.9253886337        3.0687819785
 H        -8.0738886448        2.5380234598        4.6743963528
 H       -14.5427299808        3.0293795986        0.1523873308
 H       -12.8767123370        3.2830538080       -0.2261953329
 H       -13.7058919520        4.7262807326        0.1802565870
 H       -13.8383486833        4.3927115230        3.7972142147
 H       -15.0518322700        3.6029180164        2.8962801912
 H       -14.4858156343        5.3064991190        2.4573015639
 H       -11.0878787439       -2.4254427265        3.1305874700
 H       -10.0938050099       -1.5022711459        4.3357628476
 H        -9.4451966160       -2.9200035697        3.5669053062
 H        -7.6067862463       -1.5853881944        2.8896325636
 H        -8.1014077422        0.1062935706        3.0825162745
 H        -7.5671359073       -0.5134111879        1.5982151967
 H       -13.4202852868       -2.1584419319       -2.6444749912
 H       -13.7162885073       -0.6838216370       -1.6618722942
 H       -12.3083570079       -1.6842451003       -1.2498725783
 H       -11.1164842331       -2.0653560915       -4.0482077361
 H       -10.8724310783       -0.6001328854       -4.8755203564
 H       -12.4523295359       -1.3994243123       -4.8384008599
 Na       -9.5080595331        6.5342310340        0.6426150493
