117

 C       -11.9258140904        1.7847828575       -4.3040342797
 C       -12.4590783130        0.9341923471       -3.1578053033
 O       -13.3115962814        1.4457462032       -2.4098151335
 C       -11.9483387542       -0.5041251494       -2.8401974647
 C       -10.6338118312       -0.3180097865       -2.1644507922
 O       -10.1738982681        0.8269901929       -1.9191369067
 C        -9.8552252204       -1.5276806880       -1.6478119920
 C        -9.0742213515       -1.2065836404       -0.3267937708
 C        -9.8844886040       -1.7502819612        0.8089722077
 O       -10.7049966900       -2.6520408998        0.6434838734
 C        -9.6348987101       -1.1461317509        2.2824878229
 C       -10.5339268628        0.1430541422        2.3056236650
 O       -10.0039629862        1.2229855789        1.9059784174
 C       -12.0491596705        0.0192504499        2.4034680764
 C       -12.7629258367        1.2228111798        1.7611301285
 C       -12.8303755122        2.4387657605        2.5883731451
 O       -12.5815816932        2.4898728860        3.8126968856
 C       -13.3199260009        3.7951421507        1.9031887395
 C       -11.9735348235        4.6606106015        1.9273452215
 O       -11.5399475522        5.1824178532        0.9133615511
 C       -11.1781786878        4.8899435141        3.2650055473
 C        -9.9719385613        4.0735304548        3.3573397173
 C        -8.6642282928        4.9244393906        3.2500122257
 O        -8.6815063639        6.1335188593        3.0033262266
 C        -7.3335833188        4.0891243168        3.1996212220
 C        -6.8654766267        4.0796217191        1.6666565593
 O        -7.4890107125        4.7327370328        0.8272885188
 C        -5.5219225112        3.2745525852        1.2813041944
 C        -5.5284933355        3.2194082757       -0.2578323073
 C        -5.6323883292        4.6726653130       -0.8732456019
 O        -4.9101988797        5.5515082981       -0.4404139056
 C        -6.5204939007        4.9632430502       -2.1521356656
 C        -7.4811022373        6.1433146234       -1.7899017276
 O        -8.6088063029        5.8054374299       -1.4100338826
 C        -6.9331416313        7.5878447579       -1.8036294335
 C        -7.7138921203        8.4322748711       -0.8126108796
 C        -9.1633478189        8.8969441068       -1.1944951060
 O       -10.1220375879        8.4910111512       -0.5940253079
 C        -9.3382151796        9.9498069645       -2.3043965258
 C        -9.3255306835        9.0787725292       -3.6646207164
 O        -8.2435425021        8.8426339472       -4.1545352266
 C       -10.6600805653        8.4837881236       -4.1648793935
 C       -10.7030127636       10.6368765107       -2.0986422193
 C        -8.2079815454       10.9959022742       -2.4299494832
 C        -5.4827071814        5.5501829515       -3.2428417323
 C        -7.2954465989        3.7747398459       -2.6937603888
 C        -6.2510936402        4.8232448202        4.0199189824
 C        -7.4376293697        2.6400140850        3.7345434072
 C       -13.8833733056        3.5875233580        0.5032256862
 C       -14.3757223471        4.5286783444        2.7688267775
 C       -10.2638340793       -2.1319948765        3.3432872595
 C        -8.0967135560       -0.7784264816        2.5442717282
 C       -12.8981614069       -1.3373838307       -1.9188113850
 C       -11.7253146225       -1.1982490747       -4.2696977798
 H       -10.8979077420        1.8772964671       -4.3209894371
 H       -12.3118811174        2.8170220581       -4.3710997188
 H       -12.2025378892        1.3213675664       -5.2915972937
 H        -9.2595849569       -1.9146973646       -2.4961277832
 H       -10.5034223785       -2.3959922730       -1.3593942734
 H        -8.9013321025       -0.0782787311       -0.2359652617
 H        -8.1243980996       -1.6567383709       -0.1927666954
 H       -12.1104853180       -0.0614176669        3.4660875091
 H       -12.3810593677       -0.9232377003        1.8255214240
 H       -13.8325861710        0.9278083462        1.5921114664
 H       -12.3444203910        1.3325560053        0.7936026108
 H       -11.9153430039        4.7235593928        4.0458431512
 H       -10.8858443858        5.9692741443        3.1950027572
 H        -9.9923551835        3.3308610725        2.5232725089
 H        -9.8441149141        3.4911759105        4.3163701534
 H        -5.7316900195        2.3335707871        1.7495640251
 H        -4.6759960903        3.7242443001        1.7138533469
 H        -6.3661365690        2.6940079592       -0.6727273713
 H        -4.5848983324        2.7719328629       -0.6113881804
 H        -7.0573855503        8.1367112496       -2.7307676433
 H        -5.9190906115        7.6782976317       -1.4895615126
 H        -7.2072260610        9.3587737632       -0.7602195231
 H        -7.6986034379        7.9188217914        0.1760706869
 H       -10.5438164951        8.2342129441       -5.1743276305
 H       -11.4467648077        9.2019404021       -4.0785624485
 H       -10.9449009620        7.5872435740       -3.5057750327
 H       -11.4896317213        9.8674609001       -1.8512950692
 H       -11.0554961921       11.2462408482       -2.9353326973
 H       -10.6161923230       11.3764789154       -1.2468004353
 H        -7.3314525886       10.4092004484       -2.7834297706
 H        -7.9404579746       11.4764986026       -1.4734297124
 H        -8.4471258136       11.7696722569       -3.1595376114
 H        -6.0547307637        6.0606265189       -4.0608105246
 H        -4.8558082749        4.7653677095       -3.6492718064
 H        -4.9940736157        6.3430773473       -2.7267777025
 H        -7.8132910618        4.0791358242       -3.6255427359
 H        -8.0882619981        3.3677547849       -2.0121361723
 H        -6.6649290229        2.9065060998       -3.0776420397
 H        -6.5321336555        4.9223483150        5.0432970509
 H        -6.0509744422        5.8039177539        3.6458798199
 H        -5.2768799579        4.3364154190        4.0333904534
 H        -6.6060475661        2.0101640478        3.3203163198
 H        -8.3585015837        2.1598021364        3.6059591038
 H        -7.2120982119        2.5757671867        4.8047046197
 H       -14.6240780009        2.8298773157        0.4884084668
 H       -13.1393012313        3.1766770668       -0.1749337786
 H       -14.2319246498        4.5340528951        0.2119193625
 H       -14.0579136744        4.4015239490        3.8496932420
 H       -15.3476955282        4.1178792450        2.6885913293
 H       -14.1948782258        5.5579274669        2.4771923601
 H       -11.2738482002       -2.3555471946        3.2254603563
 H       -10.1392056398       -1.7298152872        4.3484111565
 H        -9.6916040947       -3.0383404442        3.3368337493
 H        -7.4567109370       -1.6404689041        2.4970035397
 H        -8.0099128562       -0.2458489351        3.5036503882
 H        -7.6831093640       -0.1323111864        1.7207511069
 H       -12.4408963533       -2.3374792394       -1.8297482142
 H       -13.8583617816       -1.5021298004       -2.3861339254
 H       -13.0953179265       -0.8304668769       -1.0019537015
 H       -11.4739443325       -2.2786818988       -4.2643977829
 H       -10.9483388804       -0.6997376557       -4.8264204461
 H       -12.6206702380       -1.1439701569       -4.8855419108
 Na       -9.4923359533        6.3482295448        0.6783092688
