117

 C       -11.8560755213        1.7240197298       -4.3067587295
 C       -12.5148485556        0.9342772095       -3.1966734816
 O       -13.2620850969        1.4690818057       -2.4146057539
 C       -11.9630675328       -0.5344564477       -2.9117969905
 C       -10.5664411370       -0.3045120968       -2.0962056057
 O       -10.1421022277        0.7870327861       -1.9961771406
 C        -9.7900861314       -1.4988861463       -1.5564774693
 C        -9.0464846498       -1.2312774865       -0.2697990127
 C        -9.8089064245       -1.7735476633        0.8912728394
 O       -10.7174363378       -2.5647663629        0.7418818749
 C        -9.6604682250       -1.1600179035        2.2801800299
 C       -10.4889854126        0.1565496339        2.1788511582
 O        -9.8954912132        1.1929566028        1.9316127913
 C       -12.0381355493        0.1253578517        2.4897102610
 C       -12.8505300801        1.2983447350        1.8301270093
 C       -12.9240237798        2.5419944153        2.7325560029
 O       -12.5324020805        2.6005132513        3.8698524208
 C       -13.3232288746        3.8996333018        1.9492877035
 C       -12.0690871547        4.7546858518        1.9176301462
 O       -11.6047582705        5.2581145855        0.9310944526
 C       -11.3201013768        5.0009003799        3.3064647487
 C       -10.0574684669        4.1374139002        3.4850140129
 C        -8.7134921873        4.8385110993        3.1509639641
 O        -8.7070803016        6.0280546498        2.9628021825
 C        -7.3475775298        4.0549037035        3.1465792692
 C        -6.8666867871        4.0788767229        1.6803795632
 O        -7.4858952263        4.6714020723        0.8235849362
 C        -5.5944054790        3.3919209291        1.2215276664
 C        -5.4382452341        3.2870814934       -0.2403944692
 C        -5.5432125546        4.6821282752       -0.9582756632
 O        -4.8668433905        5.5900975807       -0.4840548471
 C        -6.4751261245        4.9662943269       -2.1731754755
 C        -7.4203570421        6.1002647292       -1.7219883451
 O        -8.6177755480        5.8745941060       -1.4762694632
 C        -6.9541137893        7.5017291859       -1.7301904359
 C        -7.6396900494        8.5029519448       -0.7442551797
 C        -9.0975530135        8.8788786156       -1.1788926138
 O       -10.0088031762        8.2953865517       -0.5604183428
 C        -9.3348443636        9.8995213158       -2.3791225565
 C        -9.3133340817        9.0193859232       -3.7123133643
 O        -8.2924063059        8.7560865916       -4.2679763126
 C       -10.5740695856        8.4531990123       -4.2684704235
 C       -10.6199360896       10.6534629411       -2.0465668160
 C        -8.2142244242       10.9718273133       -2.5479112880
 C        -5.4596339033        5.5132680294       -3.2256455900
 C        -7.3311331658        3.8019646706       -2.8162704241
 C        -6.2880186567        4.8334180350        3.9813221863
 C        -7.3408447783        2.6085575222        3.6739316727
 C       -13.8905565353        3.6112769993        0.5255566748
 C       -14.4213153117        4.6311303239        2.8272708034
 C       -10.2457478247       -2.1867997291        3.2677593288
 C        -8.2463213309       -0.8440780151        2.5308956600
 C       -12.9605032835       -1.2817806949       -1.9710490812
 C       -11.8245475887       -1.3211684559       -4.2057830805
 H       -10.7535235918        1.4134561401       -4.4968937956
 H       -11.8218107747        2.8249741049       -4.1304370727
 H       -12.3524919386        1.6637088391       -5.2807973868
 H        -9.0622868574       -1.6474959230       -2.3731484904
 H       -10.3326506433       -2.5232665052       -1.4809835611
 H        -8.9453226202       -0.0959427262       -0.1767886671
 H        -7.9638316659       -1.6251522405       -0.2930219355
 H       -12.0214638546        0.0923137828        3.6047880955
 H       -12.4187451174       -0.7887172604        2.0118136481
 H       -13.8430418213        0.8816519523        1.5021519909
 H       -12.3207830907        1.4927602183        0.9554852860
 H       -12.0149598417        4.6975374210        4.0180537780
 H       -11.1246952881        6.0388529240        3.3530749057
 H       -10.2535057870        3.1601082144        2.9559084104
 H        -9.9177922561        3.9339842437        4.5569099930
 H        -5.4949292319        2.4717036197        1.7638040303
 H        -4.8322818049        4.1349731495        1.6175762690
 H        -6.2269418976        2.6688942528       -0.7152717992
 H        -4.4322953646        2.8369429722       -0.3645191740
 H        -7.1202456632        7.9680635804       -2.7382345552
 H        -5.9197632326        7.6035204752       -1.5095900917
 H        -6.9728279192        9.4148114707       -0.5305750129
 H        -7.7242869809        7.8967702769        0.1509253331
 H       -10.5011859072        8.3128883196       -5.3764382229
 H       -11.4338417105        9.0571974701       -4.0194312545
 H       -10.6827982187        7.5279071754       -3.7297159452
 H       -11.3674596477        9.9031373883       -1.7138192796
 H       -11.0948919122       11.2095273157       -2.8985167634
 H       -10.4609458960       11.3915587112       -1.2553295036
 H        -7.3139652208       10.4455761662       -2.8662419869
 H        -8.0098498032       11.5812708976       -1.6770573274
 H        -8.5237873550       11.6271772331       -3.4247278531
 H        -6.0095960391        6.0590242635       -3.9342806267
 H        -5.0068748739        4.6859462044       -3.7384015720
 H        -4.8675375859        6.2444570695       -2.7489554113
 H        -7.5904631849        3.9851339775       -3.8807599510
 H        -8.2886233431        3.6856226445       -2.2594778548
 H        -6.8633247592        2.8354251539       -2.8614387044
 H        -6.6332277316        4.9923231268        4.9810415589
 H        -6.1956771837        5.8331164176        3.5915513230
 H        -5.2890023098        4.4176740724        4.0492983657
 H        -6.4153196066        2.0775333944        3.4011326922
 H        -8.1958583803        1.9997007768        3.5110073590
 H        -7.2784125946        2.6761965261        4.7597210353
 H       -14.6766852706        2.7997758399        0.6289148279
 H       -13.2129002488        3.1629785456       -0.1699749294
 H       -14.3417325290        4.5617634742        0.1865978121
 H       -14.3302697101        4.4733765496        3.8674185835
 H       -15.3498303940        4.1092755236        2.5346352807
 H       -14.3253707517        5.7280357058        2.5141744912
 H       -11.3051384346       -2.3621806841        3.0203234215
 H       -10.2434304546       -1.8781259721        4.3178721075
 H        -9.6616986207       -3.0601523382        3.1774197640
 H        -7.5876580194       -1.5333870122        1.9929099906
 H        -8.0662477117       -0.8575436144        3.6129114704
 H        -7.9310447138        0.1720096970        2.0879807043
 H       -12.4318836566       -1.9497292089       -1.3519171748
 H       -13.6754755459       -1.8782548671       -2.5133586145
 H       -13.5814791956       -0.5288286691       -1.5025308621
 H       -11.7499904371       -2.3676234746       -3.9288415697
 H       -10.9321172183       -1.0837782288       -4.8596100779
 H       -12.6841903733       -1.2822792768       -4.8725251328
 Na       -9.5813961236        6.2281656057        0.7508554590
