117

 C       -11.7575294341        1.4806583472       -4.5712644767
 C       -12.3422019316        0.8622400828       -3.3137339331
 O       -13.2507835980        1.3645326363       -2.6481978120
 C       -11.8703825338       -0.4757450788       -2.7509137633
 C       -10.4371867050       -0.3685410007       -2.1526281292
 O        -9.7821777129        0.6802691204       -1.9276975195
 C        -9.7432539829       -1.6432690932       -1.6974547150
 C        -9.2458696467       -1.4569223606       -0.2355668566
 C       -10.2708966314       -1.7112851453        0.8636899358
 O       -11.2795420942       -2.3768545238        0.7557398543
 C        -9.8552625466       -1.2099830074        2.3528637763
 C       -10.4224605279        0.2452836561        2.4583514615
 O        -9.7862859203        1.2113359867        2.1477288135
 C       -11.9856469498        0.3479430950        2.6726486213
 C       -12.5854030824        1.5973145191        1.9387076558
 C       -13.0696131145        2.7070655456        2.9386136867
 O       -12.9210845488        2.5824051535        4.1554021949
 C       -13.4298299565        4.1333853700        2.2880964777
 C       -12.1116933296        4.9601122725        2.2918723619
 O       -11.5920945988        5.3147685863        1.2004217765
 C       -11.3490987033        5.3188627040        3.6141586642
 C       -10.0627337324        4.4294944578        3.6821418411
 C        -8.8941518944        5.1724427277        3.0342074858
 O        -8.9327336442        6.3351863439        2.6271298389
 C        -7.4634759523        4.3902567540        3.0169389860
 C        -7.1025923806        4.1764535523        1.5085178106
 O        -7.8831573908        4.4339901725        0.5913424569
 C        -5.7194459792        3.5678014097        1.1705143631
 C        -5.3994447447        3.3223850879       -0.2928580701
 C        -5.2638177710        4.7053741041       -1.0972951650
 O        -4.3510461135        5.3979199848       -0.7289204363
 C        -6.2004854814        5.0052790003       -2.3930747142
 C        -7.2006466900        6.1913160842       -1.9890804584
 O        -8.3546767380        5.9304306309       -1.8277073185
 C        -6.6397307142        7.6340188363       -1.7833427864
 C        -7.5283973777        8.3622143871       -0.7266058662
 C        -8.9435639742        8.6034614412       -1.2073604866
 O        -9.9379173073        8.1060439071       -0.6727654885
 C        -9.2046261329        9.6856575623       -2.3538345675
 C        -9.2819273631        8.6652405464       -3.7249596432
 O        -8.2512636515        8.2683242153       -4.2445435890
 C       -10.6688962041        8.1477687502       -4.2132488006
 C       -10.5478189974       10.4199169838       -2.1178109173
 C        -8.0650250908       10.6176102090       -2.6679708734
 C        -5.1999820143        5.4501533997       -3.5392297446
 C        -7.1446773118        3.8686290411       -2.8527011149
 C        -6.4842129120        5.0781599764        3.9806293176
 C        -7.7202202136        2.9064380535        3.5302957587
 C       -13.9789885012        3.8471325494        0.8433564812
 C       -14.5351580121        4.7848057929        3.1886979731
 C       -10.4398269644       -2.3097433811        3.3760183588
 C        -8.3347580191       -1.1032601783        2.6389985045
 C       -12.8373560824       -0.9605891953       -1.5860750101
 C       -11.9285383434       -1.5600975950       -3.9535123118
 H       -12.0589448922        0.8905920915       -5.4166777857
 H       -10.6285382683        1.4282900379       -4.5852233852
 H       -11.8981990862        2.6136134132       -4.7067943380
 H        -8.8421716803       -1.8449673724       -2.3986134553
 H       -10.3524654286       -2.5516888869       -1.7667621250
 H        -8.8998194315       -0.3907774344       -0.1809550877
 H        -8.3130183646       -2.1484169442       -0.0516397354
 H       -12.1386559332        0.5217555137        3.7890097315
 H       -12.4041085121       -0.5487451070        2.2997634240
 H       -13.3156602770        1.2279732791        1.2931669585
 H       -11.7600345776        2.0792198678        1.2873184086
 H       -11.9710281807        4.9093048919        4.3945620159
 H       -11.2544756451        6.3362275432        3.7544091019
 H       -10.3448377712        3.5184537586        3.1352950937
 H        -9.8611863453        4.3225945316        4.7524712328
 H        -5.4882260349        2.7186935700        1.8454320105
 H        -4.9979548803        4.3522446794        1.5428671516
 H        -6.2262655432        2.6651393438       -0.6767125860
 H        -4.4699983571        2.7425665072       -0.2094416867
 H        -6.6667811796        8.2491022340       -2.6555908678
 H        -5.5984772730        7.7698851015       -1.4097748238
 H        -7.1231704685        9.3837718057       -0.4966632745
 H        -7.4558637988        7.8173846063        0.2455610559
 H       -10.5396786888        7.5195944466       -5.0826153848
 H       -11.3420036637        8.9907278418       -4.4896778173
 H       -11.0625622678        7.5645780906       -3.3895807010
 H       -11.3351313452        9.6750760768       -1.9131137729
 H       -10.8758246218       11.0508338767       -2.9679499084
 H       -10.4081084507       10.9687242371       -1.1608960924
 H        -7.1998724089       10.1068126881       -3.1192926194
 H        -7.7207018067       11.0752580282       -1.7048779732
 H        -8.3599273448       11.3775843560       -3.3717554388
 H        -5.8627355071        5.7288608162       -4.3573695425
 H        -4.6636451098        4.5717548961       -3.8890131619
 H        -4.5266339867        6.3066487657       -3.3280862808
 H        -7.7713451219        4.2233243720       -3.7058498447
 H        -7.8632597440        3.5245429493       -2.0826373400
 H        -6.5964117509        2.9254391618       -3.1530428372
 H        -6.9244480764        5.0859721916        4.9678514908
 H        -6.2598221198        6.1124204782        3.7779851686
 H        -5.5904797483        4.5185849056        4.0455667871
 H        -6.9602869586        2.2487253929        3.2612331952
 H        -8.5878351698        2.4559091552        3.0052651085
 H        -7.9589549011        2.9087655395        4.5756051629
 H       -14.8747596788        3.2634627289        0.8546525545
 H       -13.1596149461        3.5089748054        0.1637502038
 H       -14.3180993095        4.7740374950        0.3343126352
 H       -14.1005455492        4.8700488025        4.2365438825
 H       -15.4278654077        4.1218124723        3.0703690959
 H       -14.8003289240        5.7186904626        2.7526702589
 H       -11.4144117848       -2.6866334605        3.1206546969
 H       -10.4414372040       -1.9202706812        4.3448370809
 H        -9.7045231076       -3.1378141676        3.3459934740
 H        -7.9851170435       -2.0990834772        3.0853658285
 H        -8.2294210375       -0.4272002369        3.5293568780
 H        -7.7626915326       -0.7464667933        1.8170191173
 H       -13.1172604856       -0.1021633797       -0.9709723636
 H       -12.4088003815       -1.7304932482       -0.9662550056
 H       -13.7255029127       -1.3747945017       -2.0598287758
 H       -11.6369060833       -2.5658695446       -3.6484292913
 H       -11.1864733154       -1.3166540011       -4.7121551792
 H       -12.8860689914       -1.6432637306       -4.4966996583
 Na       -9.5504041798        6.1027882617        0.2865181560
