117

 C       -11.6574362961        1.3558755589       -4.6341999812
 C       -12.3842411740        0.9676309549       -3.2900189818
 O       -13.3106903106        1.5498728809       -2.8472501740
 C       -11.9310926433       -0.4806417615       -2.7101177026
 C       -10.4180176513       -0.4080782550       -2.0381567348
 O        -9.8366134468        0.5896092977       -2.1167711538
 C        -9.7212853353       -1.7360639260       -1.5092121434
 C        -9.1143589027       -1.7035250966       -0.0943493438
 C       -10.2304195103       -1.8260215602        1.0008379762
 O       -11.3642512033       -2.0961457719        0.7010877005
 C        -9.8731021838       -1.3546257627        2.4563863234
 C       -10.5655519036        0.1053245454        2.4653305481
 O        -9.8359212119        1.0397429427        2.1155444738
 C       -12.0911884538        0.3415787362        2.5776336176
 C       -12.5010199292        1.6948635422        1.9523586910
 C       -13.0382519739        2.7092267426        3.0306976183
 O       -13.0544307909        2.5431693585        4.2033112176
 C       -13.4313578025        4.2062299996        2.4045091274
 C       -12.0922395313        5.0031356174        2.2665759542
 O       -11.6532087505        5.1357725723        1.1657950335
 C       -11.4940682747        5.4065084706        3.6163450633
 C       -10.1329896755        4.6970488274        3.9120087086
 C        -8.8759582462        5.2435446154        3.1054769580
 O        -8.9231633145        6.3396313608        2.6187865365
 C        -7.5166086784        4.4012863222        2.9860446367
 C        -7.0811468087        4.1995686955        1.4358314438
 O        -7.7750023520        4.4748461028        0.4922073183
 C        -5.6752737221        3.7219059351        1.1994778460
 C        -5.5840795177        3.3883316931       -0.3469460186
 C        -5.2317415140        4.6680837031       -1.0984546589
 O        -4.2706092715        5.3565871998       -0.8452210598
 C        -6.1329594657        4.9195453875       -2.5047326392
 C        -7.1419705428        6.1263908801       -2.0651554298
 O        -8.3468907158        5.8186335301       -1.9314529334
 C        -6.5953870306        7.4902934664       -1.7019302335
 C        -7.4867582952        8.4072800631       -0.8138934226
 C        -8.9318818443        8.6524516368       -1.2866894721
 O        -9.8794369901        8.1854633669       -0.6499975741
 C        -9.1838222612        9.5897262478       -2.4505822767
 C        -9.3161259998        8.5691002520       -3.6348277307
 O        -8.2588298376        8.1856799104       -4.1149611226
 C       -10.6903416471        8.0330750970       -4.0273054021
 C       -10.5247642052       10.4497426013       -2.3967373342
 C        -8.0076668005       10.6584369971       -2.7123266258
 C        -5.1186276773        5.4903418679       -3.4871380653
 C        -6.8174672072        3.6094490687       -3.0159059019
 C        -6.4134056074        5.3737695845        3.5256761181
 C        -7.5721300398        3.0369703491        3.6789347009
 C       -14.0118337376        4.0850093131        0.9650202733
 C       -14.5022200161        4.8383310333        3.3205748535
 C       -10.6595929411       -2.1595419445        3.5101835280
 C        -8.3686671010       -1.1645826996        2.7093653107
 C       -12.9224943929       -0.9277919705       -1.5842638468
 C       -11.8993676405       -1.5713400254       -3.7980196932
 H       -12.4121276495        1.3316794263       -5.4745625703
 H       -10.8796809731        0.7166056714       -4.9595835088
 H       -11.1915414721        2.2619084220       -4.5932301994
 H        -9.0126673704       -1.9266648060       -2.2319863857
 H       -10.4018538682       -2.6035772450       -1.4942794030
 H        -8.5679440073       -0.7792599504       -0.0665583935
 H        -8.4608994957       -2.4873051259        0.0509824693
 H       -12.2375765140        0.1740208241        3.6094307047
 H       -12.5079642069       -0.4599742595        1.9062973219
 H       -13.3438992202        1.4164560912        1.1937004129
 H       -11.6741690460        1.9921388991        1.3727066022
 H       -12.2513270024        5.4002390657        4.4257651653
 H       -11.2937196338        6.5440384901        3.4657073545
 H       -10.3454892424        3.6665108073        3.6605217381
 H        -9.8643578090        4.8987678177        4.9327417805
 H        -5.3768567051        2.9767869388        1.9569130895
 H        -4.9273827150        4.5198904103        1.3614642050
 H        -6.4621490175        2.8887738209       -0.7230433950
 H        -4.7102932030        2.7478596313       -0.4017719268
 H        -6.2140477321        8.1049650249       -2.5795167272
 H        -5.7026176160        7.3657341619       -1.1088775862
 H        -6.9906635637        9.3452337838       -0.5352105674
 H        -7.5790221750        7.8963017460        0.1574029363
 H       -10.6173631711        6.9963579359       -4.4491306408
 H       -11.0121035370        8.6785758335       -4.8242879347
 H       -11.3459622383        8.0400161452       -3.1834294777
 H       -11.4182460481        9.8889053959       -2.1899476714
 H       -10.5586946731       10.8699706262       -3.3975761296
 H       -10.4855310251       11.2406995428       -1.6917911394
 H        -7.0416867161       10.2234945723       -2.9452788102
 H        -7.8798793325       11.3019926401       -1.8762266389
 H        -8.3030775836       11.2477151458       -3.6173091662
 H        -5.5271900067        6.0067106850       -4.3259847520
 H        -4.4210327547        4.6845349634       -3.8149436180
 H        -4.3988103281        6.0803983097       -2.9244093067
 H        -7.0815823160        3.7018313201       -4.0352124332
 H        -7.7143627280        3.3963978567       -2.4927941936
 H        -6.2146497216        2.7819166952       -2.9012129012
 H        -6.6457688343        5.6988511775        4.5493411145
 H        -6.3042298076        6.2705829422        2.8833669774
 H        -5.4308914264        4.8418269798        3.6090338632
 H        -6.4995866455        2.7284512809        3.8212839372
 H        -8.0434259213        2.2152266640        3.1643770584
 H        -7.9771961707        3.2155814792        4.6818455975
 H       -14.8599886806        3.3422338216        0.9396236041
 H       -13.2338727758        3.9435795637        0.2498723086
 H       -14.5177884261        4.9772834401        0.5684424843
 H       -14.1898402643        4.6423152369        4.2591171524
 H       -15.4554492804        4.4524831966        3.0442108543
 H       -14.5746168659        5.9245134961        3.0839936308
 H       -11.7704170868       -2.0139904477        3.3378771382
 H       -10.3353354487       -1.8014666040        4.5437762178
 H       -10.5291392940       -3.2249554684        3.3703639981
 H        -7.8552560478       -2.0681243764        2.5269200551
 H        -8.1562193105       -0.9322785791        3.7267274987
 H        -8.1004176121       -0.3119319567        2.0157438310
 H       -12.9667221449       -0.0443319982       -0.9443896966
 H       -12.3894246598       -1.7217826935       -1.0483451667
 H       -13.9767218595       -1.1859751051       -1.7604878563
 H       -11.7096351794       -2.5779485126       -3.4020097629
 H       -11.0948949675       -1.4677053412       -4.5677347128
 H       -12.8584573211       -1.6199732914       -4.3068382490
 Na       -9.6689569633        5.9466479795        0.3341915966
