117

 C       -11.5823044330        1.2912656483       -4.5958330200
 C       -12.3483709392        0.7901738669       -3.3873308515
 O       -13.1597985711        1.5421885813       -2.8659677013
 C       -11.8982941844       -0.5113847523       -2.6579856943
 C       -10.4652839321       -0.3903000439       -2.0345879443
 O        -9.7542279766        0.6126205551       -2.1372431650
 C        -9.9663486760       -1.6686249052       -1.4307390147
 C        -9.1733813622       -1.7461832192       -0.0818907093
 C       -10.2579224960       -1.7137029439        1.0173020531
 O       -11.3410712670       -2.1100234064        0.6811191964
 C       -10.0095919854       -1.2346787550        2.5178265978
 C       -10.5125985668        0.2020269837        2.3938302160
 O        -9.7896879744        1.0992020384        2.1367649824
 C       -12.1125736227        0.3362647833        2.5582708326
 C       -12.5359326834        1.7406258266        1.9399799513
 C       -13.0541261087        2.7475607080        2.9590631754
 O       -13.1043363274        2.5168547714        4.1704367207
 C       -13.4490764541        4.1757403033        2.4265868621
 C       -12.0831763801        5.0184736561        2.2757206361
 O       -11.5314682620        5.0897358722        1.1596857881
 C       -11.3918255284        5.4544434404        3.5512636701
 C       -10.0597372318        4.8177440276        3.9211647729
 C        -8.8560089245        5.2216355761        3.0620900104
 O        -8.9308807461        6.3155493145        2.5306228711
 C        -7.5192394311        4.4908628145        3.0001178498
 C        -7.1710841518        4.2263378783        1.4736909993
 O        -7.8722608554        4.6119225767        0.5509705758
 C        -5.7065047476        3.7360277910        1.1993421904
 C        -5.5561950367        3.3666266425       -0.3322278936
 C        -5.2151153167        4.5454389629       -1.1383082538
 O        -4.3875114099        5.3352520690       -0.7740976102
 C        -6.0098780082        4.9726196371       -2.5105374554
 C        -7.1599449281        5.9756914964       -2.0130432278
 O        -8.3299139401        5.7272302200       -1.8701224303
 C        -6.5890055583        7.3243676217       -1.6875894638
 C        -7.4282094871        8.2510930426       -0.7716035477
 C        -8.8991548700        8.7065161799       -1.2184650049
 O        -9.8696652586        8.1465106146       -0.6633617953
 C        -9.1544756790        9.6673297487       -2.5493752037
 C        -9.2534073254        8.5180424972       -3.6977758137
 O        -8.2664262358        8.0217784173       -4.2367445913
 C       -10.6288663058        7.9364354714       -3.9919051778
 C       -10.4792100271       10.4883300962       -2.3708459067
 C        -8.0649061834       10.6718072305       -2.7415022440
 C        -5.1567023522        5.6211094811       -3.6541643568
 C        -6.6489471115        3.7123012507       -3.0989874630
 C        -6.4553091624        5.5472684232        3.4000186400
 C        -7.4642806400        3.1526367428        3.7859540801
 C       -14.1498349895        4.0776798695        0.9881084774
 C       -14.3937037802        4.8200155557        3.4936845893
 C       -10.7522785376       -2.1897358408        3.6435993724
 C        -8.4797255070       -1.2576295883        2.7362604762
 C       -13.0125433924       -0.8959172768       -1.5721407081
 C       -11.9526106749       -1.6148157539       -3.7206162548
 H       -12.2551712207        1.5994834008       -5.3672373246
 H       -10.9205427535        0.6284229018       -5.0495699244
 H       -11.0090968577        2.1548391833       -4.2877843336
 H        -9.3071116908       -1.9449320149       -2.2368894463
 H       -10.7457099337       -2.4197131085       -1.4005278909
 H        -8.4717503250       -1.0051580639       -0.1309390563
 H        -8.6919258599       -2.7241279131        0.0374886526
 H       -12.2736651399        0.1286043876        3.6635571132
 H       -12.4972606997       -0.4585657293        1.9459883846
 H       -13.3340427401        1.5673950851        1.2138737180
 H       -11.6844233065        2.0487496592        1.3683629745
 H       -12.1606847461        5.3682620775        4.4117685292
 H       -11.2001628179        6.5754102415        3.5359911557
 H       -10.3339572012        3.7210073869        3.8736122068
 H        -9.8060454712        5.2172898887        4.8924336613
 H        -5.4444378580        2.9959417902        1.8722071322
 H        -4.9726775944        4.5071532060        1.4405992911
 H        -6.4682537335        2.8250993721       -0.6420611906
 H        -4.7218481799        2.7033257842       -0.3778580183
 H        -6.2666044284        7.9270668984       -2.5572850027
 H        -5.6565563928        7.2173497136       -1.1673165283
 H        -6.8574901047        9.1980202094       -0.5876003229
 H        -7.4692903288        7.8370747802        0.1985318166
 H       -10.4478830065        6.8752824197       -4.2372161244
 H       -11.0903859161        8.4049022715       -4.8893507065
 H       -11.2169164338        7.9807160135       -3.1444142599
 H       -11.1251462973        9.8093598386       -1.8723339484
 H       -10.8832779058       10.7700791748       -3.3554575129
 H       -10.4033681693       11.3826180392       -1.8019378596
 H        -7.1256430648       10.1733935927       -2.8315571563
 H        -7.9812232278       11.4211904383       -1.9826651617
 H        -8.2436877329       11.1379463727       -3.7151881116
 H        -5.8099068911        5.8838411042       -4.4780025856
 H        -4.4616496433        4.8073401502       -3.9587614469
 H        -4.3716001845        6.3669562872       -3.3823811479
 H        -6.9841198246        3.8675982468       -4.1083617891
 H        -7.5064890371        3.4686156427       -2.5139673871
 H        -6.0152998414        2.8676749519       -3.0734152930
 H        -6.6118525621        5.8504772695        4.4592250228
 H        -6.3862251661        6.4380841634        2.7307699679
 H        -5.4818030410        5.0252195378        3.4094570392
 H        -6.4563973247        2.8596736441        4.0759937560
 H        -7.8731254330        2.2874212388        3.1539590261
 H        -8.0261861763        3.2859931177        4.7414550343
 H       -15.0525587850        3.5120192498        1.0345731783
 H       -13.4636916601        3.7063372911        0.2735249382
 H       -14.4507197431        4.9913206014        0.5023186120
 H       -14.0725919748        4.4587691799        4.4505381010
 H       -15.3883789800        4.4908827689        3.1899948443
 H       -14.4283176801        5.8659599576        3.4056530132
 H       -11.8646154905       -2.2221822513        3.4779503549
 H       -10.4698248534       -1.9087939378        4.6372675357
 H       -10.4756875393       -3.2218281765        3.3826837605
 H        -8.0967292105       -2.1380372945        2.2013000792
 H        -8.2961333036       -1.4838434044        3.7545420569
 H        -8.0833107883       -0.3401119674        2.4482414843
 H       -13.0567209445       -0.2400919871       -0.7188770320
 H       -12.9347789346       -1.9604152274       -1.3383125091
 H       -14.0320647315       -0.6670453836       -2.0273610571
 H       -11.8388810626       -2.5835436958       -3.3208516987
 H       -11.1283070302       -1.5669498814       -4.4571690381
 H       -12.8996243717       -1.6152798498       -4.2436777216
 Na       -9.6748070726        5.9835835736        0.2816874430
