117

 C       -11.3506239685        1.2314295307       -4.5667152859
 C       -12.2323151066        0.8757297204       -3.3855683157
 O       -13.0228389083        1.6134149947       -2.9054429003
 C       -12.0073721944       -0.5837699078       -2.7337640456
 C       -10.5736145353       -0.5767771317       -2.0518618951
 O        -9.8965285195        0.3910797519       -2.0126990179
 C        -9.9517803715       -1.8822755632       -1.4962632756
 C        -9.5266051330       -1.5519325088       -0.0529342355
 C       -10.4734823755       -1.7681072589        1.0922246772
 O       -11.5938727804       -2.1797019020        0.9371197290
 C       -10.0709797251       -1.2168927209        2.5254260906
 C       -10.5368183295        0.2796361018        2.3792267196
 O        -9.7020977347        1.2324306264        2.3445951939
 C       -12.0222945024        0.4519415922        2.4966401192
 C       -12.5524662826        1.6715837745        1.8727254405
 C       -13.0432605045        2.7027558894        2.9385324120
 O       -13.0669454686        2.3476474836        4.0616906396
 C       -13.4201014786        4.2284204596        2.4969300613
 C       -12.0280473297        4.9247849515        2.2335043702
 O       -11.5236063798        4.9093230659        1.1607964494
 C       -11.3358417956        5.5631599469        3.5112432967
 C        -9.9523918385        4.7861744182        3.7938347401
 C        -8.8445974392        5.3990625987        2.9998728283
 O        -9.0466483281        6.3992614863        2.3432473871
 C        -7.4171398893        4.7627469542        2.9797621552
 C        -7.1289805715        4.3089991805        1.4331514748
 O        -7.9151662033        4.5559946947        0.5678462351
 C        -5.8212770228        3.5145177581        1.0804227050
 C        -5.6190837043        3.3493585923       -0.3952093103
 C        -5.2976866533        4.6513678217       -1.2121542542
 O        -4.4962354650        5.4370681579       -0.7338330784
 C        -6.0379649897        4.9268370620       -2.5699349657
 C        -7.1385880858        5.9210459901       -2.0401405262
 O        -8.2521373563        5.4787419697       -1.6895268650
 C        -6.6794707304        7.3259540378       -1.7891250068
 C        -7.4369360719        8.2437095012       -0.7697463281
 C        -8.8963514372        8.5898935860       -1.2124910899
 O        -9.9032205063        8.0973938010       -0.7809531235
 C        -9.0560800486        9.4216212316       -2.5060010707
 C        -9.2085923474        8.4360708878       -3.7061231599
 O        -8.1955419951        8.1000645978       -4.2923248103
 C       -10.5595578253        7.7829972262       -3.9291949334
 C       -10.4386451832       10.2298618414       -2.3096934605
 C        -7.8404625513       10.3880079107       -2.9173399979
 C        -5.0760433924        5.6978453389       -3.5100504506
 C        -6.7203646807        3.7140513887       -3.2411612985
 C        -6.3819555283        5.8198567729        3.6555402782
 C        -7.3635125598        3.5189909967        3.8639226859
 C       -14.1971630066        4.2458642297        1.2115199308
 C       -14.2605429896        4.9621468812        3.6416855243
 C       -10.9116226776       -2.0587457413        3.4918051299
 C        -8.4725574708       -1.3291452720        2.8631575888
 C       -12.9867703583       -0.7568530475       -1.5611824148
 C       -11.9858563286       -1.7237574418       -3.7317109369
 H       -11.7640123698        2.0593402907       -5.2656874599
 H       -11.0412458628        0.3255042660       -5.1619484526
 H       -10.4514327438        1.6871074840       -4.1327515450
 H        -9.0114420037       -2.1183303649       -2.0682838809
 H       -10.5825626594       -2.8039684171       -1.4664767300
 H        -9.1214682944       -0.4424598355       -0.0504473999
 H        -8.6492620146       -2.2274763024        0.1504052223
 H       -12.2260923146        0.6110546579        3.5741931570
 H       -12.4454336431       -0.5431155564        2.1808711404
 H       -13.3255911056        1.4581255399        1.1023205346
 H       -11.7576342252        2.2109513350        1.3107961054
 H       -11.9534045120        5.3891247450        4.3199191602
 H       -11.1515501040        6.6014221477        3.6113868243
 H       -10.0914088967        3.7450412581        3.6190167037
 H        -9.7185568215        5.0546182071        4.8637392499
 H        -5.7421571963        2.5534569199        1.6900573786
 H        -5.0113053109        4.0625083233        1.5817782045
 H        -6.5950002044        2.9209202094       -0.5926352247
 H        -4.8129209180        2.5882366570       -0.5842826200
 H        -6.4763281428        7.8594674314       -2.6977899816
 H        -5.6446795258        7.2230648009       -1.3883525323
 H        -6.9356032665        9.1731266536       -0.5382572289
 H        -7.4750100130        7.6702625038        0.2225959937
 H       -10.4395082824        6.7736561708       -4.3404706907
 H       -11.0989211731        8.3783535883       -4.6340335745
 H       -11.0898396057        7.7319424659       -2.9488082088
 H       -11.1743894738        9.6746624267       -1.6753031992
 H       -10.8108179610       10.5559207122       -3.2755393997
 H       -10.1949337236       11.2135920098       -1.8439841812
 H        -6.9534226165        9.7743963145       -3.1234855754
 H        -7.5591017632       11.0988865999       -2.1310813972
 H        -8.0600430188       10.9671505055       -3.8115885293
 H        -5.7544641466        6.2029759278       -4.2041681833
 H        -4.2477257522        5.2284884207       -4.0086332920
 H        -4.5122400416        6.3928725374       -2.9194742356
 H        -7.3055791071        4.0925259167       -4.1206954125
 H        -7.3959210903        3.0985818252       -2.5706473527
 H        -5.9443882313        3.0105604150       -3.6661825570
 H        -6.7115725759        5.9946281263        4.6606616676
 H        -6.4470338724        6.7114080912        3.0758413098
 H        -5.3396165029        5.5274067866        3.6766109952
 H        -6.3666454033        3.0253683717        3.7742831425
 H        -8.0831156204        2.8354635821        3.5329639331
 H        -7.4219668958        3.7541257481        4.9177219436
 H       -15.1550461523        3.6875069552        1.3024980844
 H       -13.6701422574        3.8119740247        0.3618893495
 H       -14.4206795614        5.2279016220        0.8454290777
 H       -13.7911489877        4.6956399387        4.5832825167
 H       -15.2926360964        4.5889744308        3.5845086149
 H       -14.2918460756        6.0968807943        3.4451214128
 H       -11.8282219447       -2.2384396510        3.0131983527
 H       -11.0163263781       -1.4959698833        4.4096747690
 H       -10.5071579929       -3.0076648317        3.6419436951
 H        -8.0865906314       -2.1775418914        2.3509857132
 H        -8.3176970819       -1.3923207437        3.9525974340
 H        -8.0472030616       -0.3346372540        2.4917856680
 H       -12.6229540994       -0.2296456516       -0.6769236503
 H       -13.1472700355       -1.8145594108       -1.4161858323
 H       -13.8796158315       -0.2159276014       -1.6902389760
 H       -11.9598824711       -2.6968849311       -3.2118782499
 H       -11.1290052414       -1.7038790227       -4.3657894190
 H       -12.8802567919       -1.7396019763       -4.3255326069
 Na       -9.6810012564        6.1919063495        0.0657376191
