117

 C       -11.0759701018        1.1316084837       -4.5580424199
 C       -12.0021983042        0.8319746974       -3.3621642435
 O       -12.9274573610        1.5797878164       -2.9756753192
 C       -11.9668321620       -0.6047013338       -2.7483331552
 C       -10.5874399927       -0.7000883789       -2.0436787718
 O        -9.9554394534        0.4083153482       -1.9641259618
 C       -10.1331633247       -1.9508758411       -1.3428134441
 C        -9.4353883103       -1.6569868732        0.0543412512
 C       -10.4962256271       -1.7957145241        1.1623452015
 O       -11.5952539363       -2.2666108275        0.8229484753
 C       -10.1619214809       -1.2329541458        2.5757707895
 C       -10.5818217489        0.2564951007        2.4611766125
 O        -9.8008969487        1.1503561655        2.6245964552
 C       -12.1887181649        0.5109806670        2.3703566858
 C       -12.5269053560        1.9198052507        1.8536084462
 C       -13.0388233102        2.8383480290        2.9631110035
 O       -13.1496168406        2.5575914604        4.1407027026
 C       -13.3705521391        4.2955983912        2.5253588857
 C       -11.9931169451        4.9602043664        2.3255565100
 O       -11.5490890215        4.8906400517        1.1421407756
 C       -11.2023141696        5.5236290830        3.4685465168
 C        -9.8442366586        4.8533133118        3.5785313156
 C        -8.6924978402        5.5274388291        2.8747040277
 O        -8.8874343145        6.6033546118        2.3193605061
 C        -7.3072753564        4.8864275154        2.9628317808
 C        -7.0720548653        4.2836953113        1.5209078083
 O        -7.9412892954        4.5211833855        0.6871939199
 C        -5.7371521754        3.5554952843        1.1849381506
 C        -5.7593951430        3.3127481045       -0.3956647718
 C        -5.3765937358        4.5578523947       -1.0946618387
 O        -4.6221418895        5.3794864787       -0.6327509223
 C        -6.0485131188        4.8909095078       -2.4957720236
 C        -7.1636801397        5.9849808751       -2.0762441554
 O        -8.2621748574        5.6105267055       -1.8455381813
 C        -6.6592414995        7.4507807134       -1.7581266510
 C        -7.5498045240        8.1637634205       -0.7348877216
 C        -8.9701892249        8.5739957804       -1.3227959284
 O       -10.0157690902        8.1745878351       -0.7808371566
 C        -9.0348670788        9.3767959759       -2.6374487978
 C        -9.1880227516        8.3272318408       -3.8498472042
 O        -8.2213614376        8.0456490652       -4.4702159095
 C       -10.5754478316        7.5488010837       -3.9786842487
 C       -10.2322635751       10.3377276764       -2.5934264765
 C        -7.7827439266       10.3047354277       -2.7979494137
 C        -5.0018296413        5.5747862634       -3.3893517873
 C        -6.7423588587        3.7430674370       -3.3561767948
 C        -6.3014140819        6.0098103114        3.3685316258
 C        -7.2414997055        3.6372618971        3.9546324726
 C       -14.2180891977        4.3258082097        1.2550270453
 C       -14.1486327468        4.8862908453        3.7010320495
 C       -10.8577207336       -1.9197810011        3.7619263451
 C        -8.5923912576       -1.3723283758        2.7821727476
 C       -12.9898310126       -0.7861249289       -1.6618523967
 C       -12.3658878135       -1.6514650558       -3.8294736324
 H       -11.1205456586        2.1036804831       -4.8450112094
 H       -11.4327155186        0.4802472579       -5.3336624445
 H        -9.9935747906        0.9592758312       -4.3937389535
 H        -9.4254268810       -2.4698826837       -1.9625494906
 H       -10.9667820393       -2.5924304285       -1.1891238187
 H        -9.1074772802       -0.6957992050        0.0599113002
 H        -8.5856159843       -2.3017733234        0.1470006512
 H       -12.7102166424        0.4183988315        3.3467761357
 H       -12.5670976701       -0.2989562093        1.7921198631
 H       -13.2443046166        1.9185361436        1.0380840559
 H       -11.7294260015        2.5708441675        1.4487964581
 H       -11.7481859976        5.6192100157        4.4755783287
 H       -11.0066234431        6.6313499450        3.3331560312
 H        -9.9189377151        3.8258844070        3.0832730864
 H        -9.6483733662        4.6722366417        4.6130266171
 H        -5.6289421786        2.7038284048        1.8135430309
 H        -4.8154861914        4.1077689622        1.4947013386
 H        -6.7422471148        2.8743958202       -0.5822723298
 H        -4.9931865396        2.6167745762       -0.6330419391
 H        -6.5365817639        8.1059389011       -2.6654902307
 H        -5.6089033256        7.4720756143       -1.4295415816
 H        -7.0766437194        9.1314054825       -0.4220441765
 H        -7.6826699753        7.5699702814        0.1543700292
 H       -10.5007415511        6.8102236767       -4.7345298363
 H       -11.4498068446        8.2159791510       -4.1451431581
 H       -10.7039307602        7.0333619883       -3.0257973411
 H       -11.1116821880        9.7405584599       -2.5048524529
 H       -10.2390914796       11.1103405820       -3.3600065281
 H       -10.1559064737       10.9183329363       -1.6909051138
 H        -6.8520705902        9.9031161332       -3.2020139244
 H        -7.5637069451       10.6573240138       -1.7738808891
 H        -8.0318765528       11.2128409905       -3.3414851124
 H        -5.4273164136        6.2376316491       -4.1201538094
 H        -4.4640518581        4.8395657658       -3.9648437069
 H        -4.1770743875        6.0192378355       -2.8418959134
 H        -7.0281336472        4.2279296839       -4.2594394386
 H        -7.6437348779        3.4878966168       -2.8708419468
 H        -6.1908877174        2.8651371378       -3.6286311091
 H        -6.4229757120        6.2738739926        4.4255126925
 H        -6.4829174008        6.8290604742        2.6637103760
 H        -5.2893243112        5.6801460673        3.1897048682
 H        -6.2638647010        3.3056844347        4.1086272686
 H        -7.8904758468        2.9227728322        3.4039985955
 H        -7.6126998205        3.8008764033        4.9527087936
 H       -15.0548265477        3.6411038113        1.1523028710
 H       -13.6607868506        4.1830922667        0.2808643958
 H       -14.5978012083        5.3841828461        1.1541614261
 H       -13.6828355191        4.6686242515        4.6948738741
 H       -15.1702844602        4.5159194880        3.7257853689
 H       -14.1387310298        5.8793039462        3.4767930939
 H       -11.8617909411       -2.2428290934        3.3939245423
 H       -10.8909826605       -1.2055867191        4.5791666502
 H       -10.2913757944       -2.8679360940        4.0679305344
 H        -8.4117507308       -2.4700248008        2.9944450450
 H        -8.3983840605       -0.7088272194        3.6241855441
 H        -8.0715977769       -1.0373186100        1.9461398711
 H       -13.0708733537        0.0267646810       -0.9828581544
 H       -12.8040942181       -1.7431743235       -1.2179786068
 H       -14.0161214943       -0.8099740243       -2.0766009294
 H       -12.4718128768       -2.6513676885       -3.3965333015
 H       -11.6594272080       -1.7294433904       -4.7019772062
 H       -13.3935354460       -1.3886458647       -4.1905249819
 Na       -9.7757808111        5.8456741035        0.1992218848
