117

 C       -11.0409856995        1.0752054257       -4.5264970969
 C       -12.1002924320        0.7979499675       -3.4622335998
 O       -12.8207119700        1.6366250708       -3.0350852569
 C       -12.0228245960       -0.6303163335       -2.7270774431
 C       -10.6081429032       -0.6964339573       -1.9865264716
 O        -9.8945295694        0.3037839811       -1.9307594835
 C       -10.1286233561       -2.0137904705       -1.4360777189
 C        -9.5073597488       -1.8030323047       -0.0092749497
 C       -10.4985186401       -1.9189212182        1.1666630677
 O       -11.6656511978       -2.2987027833        1.0477835614
 C       -10.1069828053       -1.2843687637        2.5416996304
 C       -10.6955460406        0.2644225590        2.4977189800
 O        -9.9851168050        1.2497502174        2.7420911418
 C       -12.1396776652        0.5001511886        2.3084984151
 C       -12.4595088538        1.9319799805        1.8632710263
 C       -13.0083774544        2.8415425537        2.9779941375
 O       -13.1302291862        2.5304036486        4.0959475745
 C       -13.4637661134        4.4932632968        2.5559617129
 C       -12.0556975694        5.0578772775        2.2803073513
 O       -11.5813728509        4.9074150370        1.1524493620
 C       -11.1602118419        5.5761188361        3.3811634266
 C        -9.8539888427        4.8291550866        3.5477981104
 C        -8.6272490841        5.5841113039        2.9664246546
 O        -8.7099180052        6.6468102002        2.3887181557
 C        -7.2322727937        4.9039704395        2.9692200818
 C        -7.0891800631        4.3250675923        1.5018183274
 O        -7.9068942933        4.4503362379        0.6268505892
 C        -5.7993028466        3.6377181847        1.1518480217
 C        -5.7741525302        3.1738548772       -0.3519260226
 C        -5.3894286698        4.5018433746       -1.1391180972
 O        -4.6908781065        5.3163025653       -0.5270421289
 C        -6.0740030313        4.9385959847       -2.5180076459
 C        -7.1131640556        6.0173926756       -2.0189707127
 O        -8.3033899053        5.7277036506       -1.9721365270
 C        -6.6651839709        7.3841184325       -1.7016133137
 C        -7.6555960998        8.1412982349       -0.7836927228
 C        -9.0058998598        8.5449914766       -1.3752114609
 O       -10.0325431957        8.1414167003       -0.8545950856
 C        -9.0610403568        9.3907056703       -2.6192193460
 C        -9.1477377312        8.2836252142       -3.8276337510
 O        -8.2625515734        8.0007488311       -4.5938063199
 C       -10.4469866106        7.5745671704       -3.9792930581
 C       -10.3388194729       10.3411530309       -2.6830175027
 C        -7.7102315206       10.2931912230       -2.8190300600
 C        -4.9724582736        5.5698801701       -3.4109235850
 C        -6.7681039225        3.7719883968       -3.2032685541
 C        -6.1623687649        6.0070418452        3.1825071614
 C        -7.0956120857        3.7669472069        3.9983126479
 C       -14.2379485168        4.3326604592        1.2885511800
 C       -14.2583508781        5.0734879835        3.7948162644
 C       -10.8714809261       -1.9355192628        3.6981400215
 C        -8.5797099982       -1.3479448914        2.9258516173
 C       -13.1005550357       -0.6961939610       -1.6428160996
 C       -12.3147032032       -1.6512769976       -3.8757419370
 H       -10.7869149338        2.1248574658       -4.5039739116
 H       -11.4451262398        0.7321552324       -5.4308995824
 H       -10.1169002014        0.6023916427       -4.3851752202
 H        -9.3290873551       -2.4277730931       -2.0919199379
 H       -10.8959523272       -2.7006769911       -1.3421872726
 H        -8.9046898325       -0.9054810264        0.0595883018
 H        -8.8407081548       -2.6268826732        0.1155641588
 H       -12.6542854276        0.2343273148        3.2964459164
 H       -12.5008029125       -0.3103616433        1.6684925535
 H       -13.0891166175        1.9509511544        1.0658602430
 H       -11.6219664790        2.5564910604        1.4906493476
 H       -11.6369159803        5.6240621876        4.3768527773
 H       -10.9772277994        6.6940306387        3.2950190259
 H        -9.9742920150        3.8027001117        3.1170889250
 H        -9.7580014673        4.6237660921        4.6700505956
 H        -5.6439022800        2.8672063824        1.8937858646
 H        -4.9381196850        4.2074198128        1.3345490500
 H        -6.7267372581        2.7110088410       -0.5489722884
 H        -5.0133112373        2.4016950618       -0.3355921881
 H        -6.4911100436        7.8662105578       -2.6213858346
 H        -5.6401476966        7.4995694968       -1.2673096923
 H        -7.2041904732        9.0753279325       -0.4935910305
 H        -7.8893008401        7.5460863249        0.1279187720
 H       -10.3559781749        7.0034225216       -4.8531853722
 H       -11.3308146194        8.1720501646       -3.9403873554
 H       -10.4609567819        6.8233851374       -3.1172998904
 H       -11.2529157134        9.7932700068       -2.7292945486
 H       -10.2240006826       11.0478384397       -3.4338786030
 H       -10.3209254099       10.9538284809       -1.7791915596
 H        -6.8990409679        9.7418400825       -3.3040805754
 H        -7.2907790487       10.6754024318       -1.8726974402
 H        -7.9044620761       11.1405423245       -3.4060287087
 H        -5.3189582378        6.1774652668       -4.3033908300
 H        -4.2914585477        4.8429184227       -3.8404886747
 H        -4.3052061498        6.1739473458       -2.7830126697
 H        -6.8347551018        3.9332532492       -4.2226567979
 H        -7.7334726074        3.6474098629       -2.8005270002
 H        -6.1774859633        2.8776266685       -3.1038220159
 H        -6.2133936729        6.4310828716        4.2099139560
 H        -6.3637758933        6.7401513208        2.3845696692
 H        -5.1454789373        5.6178243571        2.9771464653
 H        -6.0513468380        3.6517082757        4.3624925623
 H        -7.5838034978        2.8854452274        3.6254913176
 H        -7.6319124309        4.0950482014        4.9158347594
 H       -14.9902961601        3.5744339115        1.2589095055
 H       -13.6207524877        4.0674853709        0.4076093818
 H       -14.6939169008        5.2624779648        1.0234753705
 H       -13.7143102457        4.7869950827        4.7143033793
 H       -15.1997909700        4.6167658474        3.8893429619
 H       -14.3196380767        6.1501549039        3.6811411855
 H       -11.9247977626       -2.0859516691        3.4670237049
 H       -10.6726198291       -1.2807503147        4.5920375748
 H       -10.3978976151       -2.9400429833        3.8861175693
 H        -8.4176997909       -2.3394518375        3.2136294355
 H        -8.4443986256       -0.6247612034        3.7044380487
 H        -7.9768406275       -1.1317636987        2.0739656631
 H       -13.2216898399        0.3046070345       -1.1607040506
 H       -12.9918012715       -1.5356509450       -0.9424558558
 H       -14.0624190887       -0.8057765548       -2.1349425864
 H       -12.3083588372       -2.7082425977       -3.5045477755
 H       -11.5591773444       -1.5601710656       -4.6294209970
 H       -13.3251370708       -1.4968402691       -4.3118392563
 Na       -9.7506718211        5.7571714207        0.2165112596
