117

 C       -11.0567909823        1.0465325610       -4.5482616934
 C       -12.0487774823        0.8809394846       -3.4472524516
 O       -12.8038746066        1.7561764869       -3.1195093349
 C       -12.0581845690       -0.5770667400       -2.7532310054
 C       -10.6325168261       -0.7267665339       -2.0315252310
 O        -9.9069878059        0.1688495492       -1.8812800731
 C       -10.1905960194       -2.1734519676       -1.4479297555
 C        -9.5868294015       -2.0359927970       -0.0087883667
 C       -10.5694668472       -1.8902502863        1.1502988936
 O       -11.6469345999       -2.3591351528        1.1795123947
 C       -10.1206139767       -1.1577363406        2.6178567666
 C       -10.7168790308        0.2980606814        2.6627351226
 O        -9.9299919639        1.2194901077        2.8279134979
 C       -12.2330130662        0.5366832498        2.2485863520
 C       -12.4513079613        1.9713881532        1.8379202829
 C       -12.9844298811        2.9303485747        3.0091617346
 O       -13.1197578291        2.4469672201        4.1248019308
 C       -13.4325643539        4.3770355032        2.6066863256
 C       -12.0713847253        5.0557897982        2.2698264108
 O       -11.6805122963        4.9647082402        1.1418650349
 C       -11.1802824719        5.7275052996        3.3567466328
 C        -9.8125724233        4.8528808646        3.5315228133
 C        -8.6083313793        5.6353253781        3.0155098910
 O        -8.7266086959        6.7254797495        2.4585365943
 C        -7.1866815727        4.9267799685        2.9254627666
 C        -7.0307212168        4.2843581636        1.4750540910
 O        -7.9088909980        4.4124563544        0.6274890367
 C        -5.7815907340        3.4605286737        1.1335397256
 C        -5.7037143576        3.2077868246       -0.3635620625
 C        -5.4917709286        4.5397952091       -1.0546104334
 O        -4.6867322371        5.2967746211       -0.5575876255
 C        -6.0860847616        4.8999657530       -2.4168655691
 C        -7.1672982832        6.0447954879       -2.0595679632
 O        -8.3853412146        5.7270663299       -2.0178367177
 C        -6.6429954668        7.3755362516       -1.6292573875
 C        -7.6523225685        8.1715902701       -0.7221512762
 C        -9.0069738820        8.4406475924       -1.4281606050
 O       -10.0218370153        7.9846632995       -0.9493500225
 C        -9.0915830401        9.3970260529       -2.7476533327
 C        -9.1699312251        8.3058629951       -3.9047864453
 O        -8.1218634023        8.1430361652       -4.5593834764
 C       -10.4695157952        7.4920038676       -3.9397368516
 C       -10.2814104741       10.2797041797       -2.7145774788
 C        -7.8142334895       10.2294564941       -2.9210354060
 C        -4.9806083774        5.5320634682       -3.3405273007
 C        -6.7891811941        3.7350077223       -3.0806815994
 C        -6.0208210703        5.9901100903        3.0096586300
 C        -6.9192147706        3.8618967087        4.0579155704
 C       -14.3576936359        4.4097247559        1.3291738472
 C       -14.2001852568        5.1676831550        3.6904238818
 C       -10.9784227397       -1.9864983681        3.6689760644
 C        -8.6008525453       -1.1755185001        2.9338478563
 C       -13.2248148691       -0.6140067047       -1.6144004425
 C       -12.1254850532       -1.7110863501       -3.8017132738
 H       -10.4482104767        1.9889432438       -4.3382521865
 H       -11.6005065112        1.0053851548       -5.4880403794
 H       -10.3129679743        0.3119987508       -4.6077247653
 H        -9.3462305495       -2.4990029763       -2.0781623915
 H       -10.9909096681       -2.9715720300       -1.4294621252
 H        -8.8537416889       -1.1242472756       -0.0558343984
 H        -8.9382228927       -2.9078730657        0.2058127327
 H       -12.7721751216        0.1446129024        3.1137599394
 H       -12.5411369400       -0.2546043928        1.4521482559
 H       -13.1867813686        2.0684146512        0.9970870343
 H       -11.5912954029        2.3704047386        1.3644534164
 H       -11.6119563772        5.8522526027        4.3023577056
 H       -10.9880764197        6.7637799959        3.1271502093
 H        -9.9639067143        3.8837117073        3.0409622452
 H        -9.6821030873        4.5384847637        4.6269235505
 H        -5.7272577590        2.5523842831        1.7892930004
 H        -4.8878319218        3.9620550643        1.4472976217
 H        -6.6703084285        2.7770929532       -0.5876068497
 H        -4.9314824014        2.4090868027       -0.4663832391
 H        -6.1647247681        7.8719683133       -2.4483817251
 H        -5.7592063931        7.2621011413       -1.0081095461
 H        -7.2477597894        9.1067968703       -0.3732524222
 H        -7.9106602702        7.4818229370        0.1239489233
 H       -10.5603848652        7.0032055290       -4.9592575572
 H       -11.2732866015        8.1703022780       -3.7560028855
 H       -10.5041449216        6.7124138545       -3.2036123073
 H       -11.1414567363        9.6370363641       -2.5441555842
 H       -10.3787617812       10.8144028266       -3.6503004236
 H       -10.1978359433       11.0245401800       -1.9406131773
 H        -7.0835935214        9.5872459120       -3.3749774172
 H        -7.3870688360       10.6337989728       -2.0421583793
 H        -7.9609929248       11.0587346277       -3.6159875658
 H        -5.4776063568        5.8671919039       -4.2755702983
 H        -4.1692544287        4.8563982070       -3.7145136249
 H        -4.4572780578        6.4203640222       -2.8930708504
 H        -6.8104951395        3.7985143617       -4.1746071593
 H        -7.7967799105        3.6100031863       -2.6568002908
 H        -6.1699650538        2.8852879857       -2.9109562678
 H        -6.1092019104        6.4677495241        3.9927697621
 H        -6.0750610832        6.7086563646        2.1796981725
 H        -5.0293187326        5.4772641699        2.9291542580
 H        -5.7958024377        3.8420654986        4.2037355915
 H        -7.4299733265        2.9156795160        3.9686312226
 H        -7.2294738410        4.3665988966        5.0022894814
 H       -15.1887763936        3.7140859117        1.4221674200
 H       -13.9598177014        4.0515209294        0.4502679276
 H       -14.7574499458        5.3719567749        1.1914727155
 H       -13.8237991474        5.0248021229        4.6520527250
 H       -15.1695547559        4.6732819909        3.7356281022
 H       -14.2774978856        6.2749752695        3.3841619709
 H       -12.0482653924       -1.9018897431        3.4515851911
 H       -10.7173567895       -1.6793292779        4.6970312326
 H       -10.6728204994       -2.9753539666        3.5486166012
 H        -8.4006177638       -2.1815678513        3.0646652892
 H        -8.4293854294       -0.5380145465        3.7498362732
 H        -8.0419749555       -0.8832668155        2.0224220111
 H       -13.2435636225        0.4097279032       -1.1561087199
 H       -13.0488641784       -1.4099392215       -0.8519279487
 H       -14.2343536985       -0.7653996425       -2.0147153615
 H       -12.0290240238       -2.6512074594       -3.2425495598
 H       -11.2912575413       -1.6331297392       -4.4771354901
 H       -13.0250948599       -1.7735880609       -4.3679345157
 Na       -9.6879443917        5.8640075289        0.1462127100
