117

 C       -10.9875933162        1.0453971406       -4.6488651288
 C       -11.9589434012        0.7452434718       -3.4400224697
 O       -12.6745176253        1.6563861579       -3.1142794975
 C       -11.9903749984       -0.5644190934       -2.6729066721
 C       -10.6047810573       -0.7483185734       -1.8012999138
 O        -9.6935517033        0.1073856560       -1.6584695384
 C       -10.4897227343       -2.1227350521       -1.1472156373
 C        -9.6540760573       -2.1139044858        0.1255465143
 C       -10.6818719588       -1.9679754030        1.3069339958
 O       -11.8471274050       -2.3813506226        1.0965129040
 C       -10.2361695097       -1.1421434745        2.5385698993
 C       -10.7828627697        0.3443721949        2.6102953655
 O       -10.0113949607        1.2429568025        2.9233995583
 C       -12.2815186881        0.6325487311        2.2583758278
 C       -12.5601318139        2.0404252225        1.8205772418
 C       -12.9593664143        2.9236737719        2.9873020948
 O       -13.1880663803        2.5618569132        4.1016052536
 C       -13.3681006030        4.4889378984        2.5757931742
 C       -11.9640329352        5.1413332387        2.1472244443
 O       -11.6607006692        5.1665044100        0.9334788017
 C       -11.0170516626        5.5794496333        3.2376021368
 C        -9.7174634347        4.9329588290        3.4810160448
 C        -8.5114750082        5.6794266092        2.9056642799
 O        -8.5955858117        6.7887752976        2.4162938323
 C        -7.0771833131        4.9755164365        2.8918370096
 C        -7.0430691402        4.2065278487        1.4952922428
 O        -7.8925349859        4.3747359161        0.6491328616
 C        -5.9486428963        3.1850945853        1.2263860420
 C        -5.6505790640        3.1162264877       -0.3232476090
 C        -5.4306261477        4.5016438461       -0.9681847975
 O        -4.7033425104        5.3880211207       -0.4931811448
 C        -6.0836612178        4.8553147297       -2.2878119419
 C        -7.2783938481        5.9475774312       -1.8845386904
 O        -8.4427251944        5.6964478937       -1.9766555041
 C        -6.7236324786        7.3159122461       -1.4883634393
 C        -7.6566494098        8.2371867970       -0.7526172795
 C        -8.9622836388        8.4626382507       -1.5100626547
 O        -9.9781332847        7.8095329573       -1.2193095845
 C        -9.0529032413        9.3209770576       -2.7534016228
 C        -9.0960537376        8.1911680607       -3.9594548940
 O        -8.1541381378        8.1443944472       -4.6853498342
 C       -10.3442953360        7.3383626485       -4.1890809075
 C       -10.4684466068       10.1379876897       -2.5874130911
 C        -7.8215208841       10.2975472255       -2.9346445848
 C        -5.0833450175        5.4226353434       -3.3381292990
 C        -6.8458096558        3.7102535998       -2.9509432507
 C        -6.0509839983        6.0997475615        2.7051653171
 C        -6.8406172685        4.0846627710        4.0838957058
 C       -14.3287721897        4.4472414451        1.3522806124
 C       -13.9807323098        5.1271771320        3.8863329360
 C       -10.9456277536       -1.8991609851        3.7053302352
 C        -8.6905392856       -1.1346345656        2.7702458904
 C       -13.2836732972       -0.5530208062       -1.7721646934
 C       -12.1427009071       -1.7775512649       -3.7010859107
 H       -10.1285729871        1.5922439943       -4.3045535417
 H       -11.5871551473        1.5260360135       -5.4548503941
 H       -10.5370509325        0.1478229877       -5.1629072600
 H       -10.1614587135       -2.8725689122       -1.8980370679
 H       -11.4773084939       -2.3869925119       -0.8259124510
 H        -8.9911330546       -1.2879905938        0.0845176782
 H        -9.0139756883       -3.0214690927        0.2428833902
 H       -12.7539698794        0.1758490396        3.1198001387
 H       -12.5799723520       -0.0345751135        1.5266923026
 H       -13.3499221316        2.1400169876        1.1006415768
 H       -11.6932018165        2.4890334893        1.2136604779
 H       -11.5598685725        5.6447156851        4.2128656743
 H       -10.8118761545        6.6362419830        3.0410376319
 H        -9.8109056650        3.8909915015        3.1461650132
 H        -9.5675452172        4.7294054968        4.4982314346
 H        -6.4227966010        2.2379609542        1.5580763676
 H        -5.0015312120        3.1358308289        1.8663665966
 H        -6.4651388501        2.4984710681       -0.7548901266
 H        -4.7204282978        2.5638422823       -0.4109347325
 H        -6.3762156041        7.7800359538       -2.4439410440
 H        -5.7528823966        7.3876419873       -0.9560663121
 H        -7.1220187712        9.2132817099       -0.6697469451
 H        -7.9976885996        7.8504175511        0.2003107559
 H       -10.3427149577        6.9726847004       -5.1615895187
 H       -11.2581230270        7.8695421636       -3.8887674499
 H       -10.2609158482        6.4794746644       -3.4629879145
 H       -11.1900915841        9.7091478103       -1.8643172043
 H       -10.9575759611       10.1545897402       -3.5805276380
 H       -10.1976394338       11.2024417922       -2.3385878554
 H        -6.8111009365        9.8579154808       -2.9397476761
 H        -7.8512756412       11.1288848822       -2.1884515697
 H        -7.9237297862       10.7718510930       -3.8881719442
 H        -5.4769569902        5.5955615936       -4.3437735332
 H        -4.3937726199        4.6243827273       -3.5194749025
 H        -4.5739425656        6.3331146029       -3.0630641011
 H        -7.3489774759        4.1700338758       -3.8213635612
 H        -7.6444267128        3.3084379781       -2.2941925092
 H        -6.1563906310        2.9369805893       -3.4455281708
 H        -6.1806941952        6.7391166180        3.5681520009
 H        -6.2048872567        6.6794648353        1.8081804212
 H        -5.0921601657        5.6553612193        2.6955572691
 H        -6.0862770253        3.3832219518        3.8014983028
 H        -7.7680444312        3.5988587193        4.4005620742
 H        -6.5009248194        4.6899237310        4.9162335911
 H       -15.1843246663        3.8186004110        1.5121319238
 H       -13.9334099755        3.7912747705        0.5299950323
 H       -14.7298966578        5.4211138722        0.9977510214
 H       -13.2973384355        4.8163290671        4.7580340303
 H       -14.8962496848        4.6115453955        4.1598153904
 H       -14.0446722203        6.1790764170        3.8408028200
 H       -11.9798930519       -1.7267764346        3.7476818348
 H       -10.4911751788       -1.6169860374        4.6275638108
 H       -10.6438675523       -2.9571874056        3.5980740371
 H        -8.3338820026       -2.1474358983        2.4545670397
 H        -8.5693667788       -0.8371291310        3.8513050217
 H        -8.2304234838       -0.4424595250        2.0866049750
 H       -13.2960129622        0.2574697159       -1.0375647921
 H       -13.2834962573       -1.4820670845       -1.2142343167
 H       -14.1816446543       -0.6082791433       -2.4018129801
 H       -12.4849616161       -2.6848538171       -3.2271061902
 H       -11.2066382404       -1.8852738456       -4.2242831456
 H       -12.8423935285       -1.4518658742       -4.4854519477
 Na       -9.6237021628        6.1072425961        0.1518174656
