117

 C       -10.0787610395        0.5589190065       -4.2192508363
 C       -11.3403209348        0.5184087989       -3.3061449522
 O       -12.1410464315        1.4025657999       -3.3939518411
 C       -11.7726438609       -0.8275445712       -2.4294216902
 C       -10.6968924415       -1.1793430824       -1.3451131718
 O        -9.7723643673       -0.3550832660       -1.2100147042
 C       -10.8186863945       -2.4813526457       -0.6275797218
 C       -10.3319431974       -2.5031353536        0.8247847752
 C       -11.2938406785       -1.6628265704        1.6281616155
 O       -12.5140642866       -1.8000110097        1.4750156811
 C       -10.7472893631       -0.7703728012        2.8534705295
 C       -11.1888246960        0.6698044870        2.5059124427
 O       -10.4345508362        1.5796009171        2.0937225356
 C       -12.7198362286        0.9331853808        2.6091348319
 C       -13.1848934829        2.3665824584        2.2420454519
 C       -12.9397076973        3.4977216548        3.2489961854
 O       -12.5122561958        3.2451951807        4.3719743375
 C       -13.1997088084        4.9376339761        2.6551613471
 C       -11.7277389433        5.5845520574        2.5466891899
 O       -11.2634968354        5.7707396974        1.4615977715
 C       -10.9508558835        5.7894477741        3.8609610153
 C        -9.5268489584        5.1267198579        3.8016458663
 C        -8.4494247739        5.8265165669        2.9215297348
 O        -8.6576288241        6.9147629782        2.4481366480
 C        -7.0461806607        5.0893480808        2.7727154106
 C        -7.2659912633        4.1020814138        1.5042688623
 O        -8.1921708224        4.3202315647        0.7926217977
 C        -6.1316061637        3.2385105815        1.0827667560
 C        -6.0268634186        2.9975626590       -0.5083971542
 C        -5.4428420897        4.2023767264       -1.3041516957
 O        -4.5819702632        4.8566248738       -0.7938216183
 C        -6.1229763392        4.5614847998       -2.7024589317
 C        -7.1129841738        5.6794281973       -2.2731529517
 O        -8.2728630080        5.3910257647       -1.9775655099
 C        -6.5052450199        7.0637888114       -2.0668966227
 C        -7.4714359615        7.9420265044       -1.3877835479
 C        -8.9515840156        8.0432703917       -1.9026930302
 O        -9.8904993050        7.6459632575       -1.2396113457
 C        -9.2362135158        8.9171420276       -3.1976066401
 C        -8.7749506035        7.9797289915       -4.4648715944
 O        -7.6047326701        7.9686862517       -4.8001322472
 C        -9.9032700885        7.1736943451       -5.1613282540
 C       -10.7330040656        9.2477138539       -3.2061746939
 C        -8.3875532621       10.2016723508       -3.1216069900
 C        -4.8832765925        4.9289718051       -3.5605625273
 C        -6.8992216369        3.3800191389       -3.3509965767
 C        -5.9578232036        6.1510406693        2.4760372217
 C        -6.7284404340        4.2927782620        4.0098784659
 C       -13.8856108176        5.0694265150        1.2748219738
 C       -13.9762678243        5.6655925786        3.7402579878
 C       -11.3630573119       -1.3992134222        4.1176523806
 C        -9.1647721764       -0.6813917737        2.9354371169
 C       -13.1178932318       -0.4290734270       -1.8112169420
 C       -11.8984410007       -1.9794559949       -3.4576666755
 H       -10.3895268539        0.5860954255       -5.2237916576
 H        -9.4904363968       -0.3598416254       -4.0964569972
 H        -9.4171477209        1.4927722272       -4.1830330050
 H       -10.3459753612       -3.2491548964       -1.2837260708
 H       -11.9227960143       -2.7513399321       -0.5627288136
 H        -9.2871273249       -2.0353273896        0.8893660597
 H       -10.2250928901       -3.5722684530        1.2080334203
 H       -13.1117606967        0.7435741309        3.6165465456
 H       -13.2606359060        0.2144091011        1.9332284765
 H       -14.3492512603        2.4160772276        2.3084337194
 H       -12.8036378544        2.6515537312        1.2415385300
 H       -11.4912169019        5.3706971680        4.6513610126
 H       -10.7466846423        6.8382241136        3.9249217495
 H        -9.6159741860        4.1244202804        3.4946024237
 H        -9.1253453918        5.1530727934        4.8714709422
 H        -6.1317248493        2.2244123281        1.6032559295
 H        -5.2286282832        3.8657939776        1.1934349910
 H        -6.9613624430        2.6149737492       -0.8997113031
 H        -5.3493137123        2.1378460132       -0.7193425741
 H        -6.3749600698        7.4685898198       -3.0287730313
 H        -5.5502070111        7.1386672645       -1.5187562852
 H        -7.1284981781        8.9581743658       -1.2673411864
 H        -7.6127595009        7.6817884589       -0.2994395125
 H        -9.6528352363        6.6707727124       -6.1017913306
 H       -10.8262744117        7.7979131393       -5.2735098363
 H       -10.1366411220        6.3904739093       -4.4820299422
 H       -11.2307202256        8.3052692190       -3.2166087713
 H       -10.9959801091        9.8138872931       -4.1109207967
 H       -11.0432568656        9.8725561387       -2.4281602290
 H        -7.3102835413       10.0264059630       -3.1355300339
 H        -8.5995383569       10.7628832623       -2.2297260128
 H        -8.6986585880       10.8599952296       -3.9876114653
 H        -5.1213897820        5.2771651031       -4.5282637434
 H        -4.2261963707        4.0727310559       -3.7845051468
 H        -4.2281733780        5.6442026466       -3.0446861517
 H        -7.5556516349        3.7206931048       -4.1154851738
 H        -7.4866144211        2.8698476228       -2.6565864388
 H        -6.1811318770        2.7704198875       -3.7885886413
 H        -5.8171878054        6.5370091261        3.4815863750
 H        -6.4061125570        6.8743759115        1.7716071312
 H        -4.9827364634        5.7791138251        2.1044793773
 H        -5.7194245442        3.8683463148        4.0030348273
 H        -7.4977917496        3.5226486747        4.2442675161
 H        -6.6944325324        4.9322909838        4.9102795078
 H       -14.8146856667        4.5373583293        1.2969362205
 H       -13.3352808078        4.5987106180        0.4836433269
 H       -14.1516274495        6.1020724842        1.0766837517
 H       -13.4931660845        5.6742242691        4.7228899133
 H       -14.8694307530        5.0821891807        4.0469085410
 H       -14.1713618662        6.6702876368        3.4766826934
 H       -12.4849659974       -1.1566921723        4.1419150692
 H       -10.9710876203       -1.0100744206        5.0759669172
 H       -11.3756363522       -2.4990064280        4.2019957367
 H        -8.7551613246       -1.6901836555        3.1336325289
 H        -8.8901539815       -0.0514194642        3.7212778710
 H        -8.7058038383       -0.3481793526        2.0464228791
 H       -13.0697277713        0.4181244237       -1.1443227223
 H       -13.5549520571       -1.3287804285       -1.3890510720
 H       -13.8057333168       -0.0352891577       -2.5645402150
 H       -12.1511568008       -2.9652701751       -3.0130756686
 H       -11.0001366608       -2.0456519913       -4.1308463644
 H       -12.7513360855       -1.6831188092       -4.0708300611
 Na       -9.4834983915        6.2250550827        0.4454602425
