117

 C        -9.7969982339        0.3261925024       -4.0316514122
 C       -11.2220787869        0.3211116663       -3.2801001279
 O       -11.8252738122        1.3244856440       -3.2771686610
 C       -11.7627841683       -1.0034588976       -2.4079308403
 C       -10.6985014868       -1.3484239970       -1.3069184790
 O        -9.7536244607       -0.5721442504       -1.2106795253
 C       -10.7701612481       -2.5889296038       -0.4987066037
 C       -10.2681858161       -2.3250964086        0.9330071441
 C       -11.3827002494       -1.4848269267        1.6772748748
 O       -12.5749999119       -1.5494873431        1.3174937738
 C       -10.9326896384       -0.6215761990        2.9022459462
 C       -11.4853554559        0.8293801818        2.8393610361
 O       -10.7184179012        1.7257918904        2.5982584224
 C       -12.9475030190        1.0522206172        3.0850762680
 C       -13.4998187923        2.3496388479        2.4861646057
 C       -12.9354373863        3.6153896072        3.2838323276
 O       -12.4236494882        3.4743948188        4.3664126636
 C       -13.1197557898        5.0543427651        2.7550451261
 C       -11.7483133653        5.7406300734        2.6247448698
 O       -11.4159008685        6.1483731442        1.4959157981
 C       -10.8836526948        5.9252511485        3.8550794217
 C        -9.5802702137        5.0645230100        3.7699350052
 C        -8.4360085378        5.6584456612        2.9982084653
 O        -8.5326669264        6.8022312419        2.5565889003
 C        -7.0079104341        4.9194195990        2.7573057812
 C        -7.0580764457        4.2555075208        1.3414181462
 O        -7.9450082265        4.4876476883        0.5411179085
 C        -6.1535988292        3.1681422739        0.9510823852
 C        -6.0725206577        2.8665907454       -0.5986347829
 C        -5.4897447041        4.0366244268       -1.3717188811
 O        -4.6073510372        4.7119287165       -0.8337584711
 C        -6.1539173625        4.4931171113       -2.7118041535
 C        -7.1761873824        5.5689578244       -2.2628905171
 O        -8.3255615842        5.2143846367       -1.9019851297
 C        -6.6079914620        6.9891478405       -2.1417703421
 C        -7.4181505497        8.0714062989       -1.5520696210
 C        -8.8757793555        8.2142992462       -2.1176256741
 O        -9.8647863745        7.8835543728       -1.4482434648
 C        -9.1589476713        8.9116331255       -3.4328610907
 C        -8.7305125112        7.8420691624       -4.6105968487
 O        -7.5424803273        7.7343278977       -4.9075314077
 C        -9.8146223943        7.1213721302       -5.3452854763
 C       -10.7192685768        9.3585740019       -3.5157395734
 C        -8.2566028751       10.1833343599       -3.5832770111
 C        -4.9588144631        5.0345171190       -3.4988627626
 C        -6.7946068379        3.2413076210       -3.3857502544
 C        -5.9617300316        6.0833493744        2.6736836323
 C        -6.5874114528        3.9647025559        3.9469107566
 C       -13.9491821998        5.1717114058        1.4410867527
 C       -13.9637236613        5.7452582153        3.8664186783
 C       -11.5083711357       -1.3223414423        4.2168755866
 C        -9.4564917716       -0.4974558524        2.9914895425
 C       -13.1292322028       -0.4787009651       -1.7798603199
 C       -11.9590661857       -2.1264670993       -3.4763112952
 H        -9.6737053032        1.2094943089       -4.5828643914
 H        -9.6995119225       -0.5401748012       -4.6339403856
 H        -8.9493441032        0.2848087069       -3.3778800827
 H       -10.2666952329       -3.3873873414       -0.9785974400
 H       -11.8681911985       -2.9018884157       -0.4793895916
 H        -9.2875711763       -1.8655934780        0.8111891523
 H       -10.1127976935       -3.2836579556        1.4801698232
 H       -13.0816364750        1.0637796267        4.1729595043
 H       -13.5996120354        0.2550999832        2.6392331833
 H       -14.6693733821        2.3424576314        2.4911017782
 H       -13.1038465412        2.4817782563        1.4922178412
 H       -11.4391702189        5.5622673148        4.7272180235
 H       -10.6735046199        7.0005718802        3.9044330599
 H        -9.8106225595        4.0909853978        3.3551792495
 H        -9.2363629957        5.0251224850        4.8676573830
 H        -6.5623377269        2.2046511105        1.3101795681
 H        -5.1376170372        3.3281728949        1.3104210971
 H        -7.0491011629        2.5658551269       -0.9371442768
 H        -5.4853314543        1.9409777661       -0.7223196223
 H        -6.3083550426        7.3065041087       -3.1030434757
 H        -5.7341954689        6.9952843783       -1.4701784806
 H        -6.9481739611        9.0596070224       -1.6229720322
 H        -7.5691208109        7.8132628494       -0.4923992138
 H        -9.4713117593        6.2217613578       -5.7502879928
 H       -10.3254617260        7.8354044249       -6.0852577531
 H       -10.5863457502        6.8250891447       -4.6487297398
 H       -11.3402869008        8.4407174994       -3.5138160860
 H       -11.0286153708        9.8865234678       -4.4771518481
 H       -11.0656368961        9.8938992012       -2.6366737212
 H        -7.2083210849        9.9833849905       -3.7974663304
 H        -8.2757797254       10.7668839811       -2.6756830246
 H        -8.6616444774       10.8191503213       -4.4141687587
 H        -5.2707947020        5.4895618414       -4.3977935089
 H        -4.3347874208        4.2003996337       -3.8256633672
 H        -4.3968421814        5.8212783697       -3.0058079889
 H        -6.7300743120        3.2190002848       -4.4689390063
 H        -7.8301447697        3.1015408177       -3.1622062752
 H        -6.1780674195        2.4082841913       -3.0324832146
 H        -6.0707921519        6.7884814121        3.4854848973
 H        -6.2470249669        6.6097157447        1.7648972815
 H        -4.9766184623        5.6836006401        2.5351576931
 H        -6.2894857715        4.4394080690        4.8321463166
 H        -5.6338749545        3.4697400420        3.6385540854
 H        -7.1807087536        3.0933609216        4.1344183340
 H       -14.9571577849        4.8054836556        1.5427576862
 H       -13.5250736869        4.4810766140        0.6780031456
 H       -13.9048055976        6.2562709439        1.2362438098
 H       -13.5062402162        5.6231224075        4.8781090422
 H       -15.0387574198        5.5172438307        3.8670523114
 H       -13.8740942999        6.7545194370        3.7300047296
 H       -12.5386820394       -1.6935435181        4.2282967882
 H       -11.4930316164       -0.6803102229        5.0720372099
 H       -10.7775054576       -2.1042100485        4.5492236821
 H        -8.9549794537       -1.4893105460        2.7446011226
 H        -9.1639283341       -0.1110751823        3.9536318662
 H        -9.0709291326        0.1226961935        2.2370950464
 H       -12.9286766962        0.4788817386       -1.3002461583
 H       -13.5326403179       -1.1758763732       -1.0351070175
 H       -13.9419500639       -0.4131094089       -2.5380318255
 H       -12.6340442536       -2.9192962000       -3.2410077013
 H       -11.0106078476       -2.5381894241       -3.8711093233
 H       -12.3475791321       -1.5701701865       -4.3083438328
 Na       -9.4537269127        6.2101531154        0.2309146275
