117

 C        -7.2541759202       13.1781882604       -1.9365494280
 C        -6.9850845894       11.6898952413       -2.4849956377
 O        -7.8747677633       10.9443436384       -2.7463506682
 C        -5.5085204541       11.2040482850       -2.6762322258
 C        -5.0223236052       10.8129500397       -1.1567743934
 O        -4.8105856957       11.7045308805       -0.3840178073
 C        -4.7966352133        9.3475730249       -0.7790053175
 C        -6.0044110463        8.6539542019       -0.2089274739
 C        -5.6966291602        7.2812138099        0.3649081433
 O        -5.1156514370        6.4799552034       -0.3773946702
 C        -6.0049317899        6.8772342366        1.8190837410
 C        -7.5504986638        7.1880798796        1.8665918629
 O        -7.8410573925        8.2896387014        2.2291650175
 C        -8.5533986412        5.9796161812        1.7673537985
 C       -10.0615060297        6.3385188649        1.5685969967
 C       -10.8109167593        5.1783014754        0.9450927274
 O       -10.6917313425        4.0580019794        1.4083821881
 C       -11.9801285269        5.5634712245       -0.0403337822
 C       -13.0819551167        4.3967243640       -0.1547742135
 O       -12.9747680065        3.4102662031       -0.8386528471
 C       -14.5222812902        4.4879222509        0.7414275706
 C       -15.1882462925        3.1552763444        0.6435005566
 C       -14.2917252354        2.1148903661        1.5296473549
 O       -13.2505966170        2.4871931159        2.0253436791
 C       -14.6777461647        0.6050466228        1.6698447992
 C       -13.5692945597       -0.3815566978        1.1087573282
 O       -12.4596203058       -0.0525253857        0.7468200954
 C       -13.8439937454       -1.8866698699        1.2076136743
 C       -12.7260795443       -2.7017614659        0.5359613984
 C       -12.7780069217       -2.6840713023       -1.0965839223
 O       -13.5208402480       -1.9081207646       -1.5935297941
 C       -11.4266748070       -3.2172643252       -1.9232196861
 C       -10.2477628295       -2.2833852232       -1.6176378258
 O        -9.4852647046       -2.4882302719       -0.7054258053
 C       -10.0573743350       -0.9785962039       -2.5766771369
 C        -8.7620816442       -0.2460420570       -2.3387456489
 C        -8.9448970059        0.6308613863       -1.0215271342
 O        -9.9499530852        1.3379081811       -0.9487650693
 C        -7.8822512555        0.5570898506        0.1022695956
 C        -8.6219735758        0.0694146935        1.4880313640
 O        -9.6585110446        0.5352985801        1.8472537358
 C        -7.8916164054       -0.8652954251        2.5417243062
 C        -6.6676320719       -0.3174215948       -0.1838932861
 C        -7.4026106521        1.9926183251        0.5175764867
 C       -11.0271225853       -4.6977807417       -1.6154167934
 C       -11.8475252912       -3.0978884355       -3.3677191116
 C       -14.7021406250        0.2232477435        3.2429278386
 C       -16.1392046835        0.2552780897        1.2022545951
 C       -12.6287756639        6.8475191666        0.6367321510
 C       -11.5093824021        5.8067834291       -1.5111510819
 C        -5.6108006437        5.4685838357        2.2651334574
 C        -5.3324673800        7.9371658651        2.7301350378
 C        -5.4456751335       10.1674471736       -3.8320080692
 C        -4.5219883443       12.3751121310       -3.0981834045
 H        -6.6001364015       13.8530798091       -2.5221163986
 H        -7.1129780364       13.3521934165       -0.8706157807
 H        -8.3262292460       13.2850860445       -2.2993255155
 H        -4.0060789097        9.3128546093        0.0326008425
 H        -4.3857632865        8.9980834134       -1.6571983858
 H        -6.7654400303        8.4826712126       -0.9916253790
 H        -6.5602695576        9.2645545900        0.5530427221
 H        -8.4317731999        5.5145489537        2.7085848482
 H        -8.2167953602        5.2467657538        1.0415760091
 H       -10.0932163112        7.2408282083        1.0333823368
 H       -10.5803787869        6.5217937907        2.5576237486
 H       -14.9914563122        5.3867683516        0.2938353246
 H       -14.2877261346        4.7941385714        1.7602488242
 H       -15.3180068288        2.6643092006       -0.3340179294
 H       -16.1519863231        3.3016446169        1.0752852164
 H       -14.9115509297       -2.0945707687        0.9972504341
 H       -13.8621500786       -2.1095030771        2.2834495659
 H       -12.8665486107       -3.6948516281        0.9822775583
 H       -11.7553172609       -2.3137604975        0.8675886027
 H       -10.9711566056       -0.3367356189       -2.5074708452
 H        -9.9873037788       -1.4093116947       -3.5911412075
 H        -8.6821714739        0.4405359427       -3.1556515102
 H        -7.8916480791       -0.9069904981       -2.3165422028
 H        -7.4362034163       -1.7664588655        2.1945062680
 H        -8.7737782561       -1.1289975578        3.2601085291
 H        -7.1051921038       -0.2927858144        3.0508462561
 H        -6.2862132708        0.0704173973       -1.1027702039
 H        -6.9433949322       -1.4003549266       -0.3205022948
 H        -5.9534626051       -0.2834648426        0.6247557364
 H        -8.3017175693        2.6080744604        0.6470485972
 H        -6.7407347039        2.4936371718       -0.2717609840
 H        -6.7409115340        1.9463215580        1.3813481075
 H       -11.7496100005       -5.4482316792       -1.8806376790
 H       -10.9018377733       -4.9080793846       -0.5976774573
 H       -10.0812217657       -5.0508897816       -2.0647158993
 H       -12.6322685671       -2.4051444488       -3.5188660661
 H       -12.3006790334       -4.0462503895       -3.6944288731
 H       -10.9778747916       -3.0083761441       -4.0123645633
 H       -15.6406096889        0.4439011800        3.7200206988
 H       -13.9283536487        0.6858346429        3.8666002085
 H       -14.6571372907       -0.8619850388        3.3074328168
 H       -16.9276324699        0.8483698097        1.7264763327
 H       -16.4928257999       -0.7107384646        1.4670180671
 H       -16.3011822581        0.5341959807        0.1246708936
 H       -13.5860850170        7.0053267002        0.0835291258
 H       -12.1221634612        7.7367092069        0.3519545512
 H       -12.7248443655        6.7879539772        1.6845760004
 H       -11.1322142172        4.9380576198       -2.0812637250
 H       -10.6654444141        6.5602907572       -1.5490555843
 H       -12.3995280065        6.2108562572       -1.9872765164
 H        -4.5944058913        5.1624299704        1.9885353884
 H        -6.2944287089        4.7677078958        1.7906898276
 H        -5.7211996495        5.4243059340        3.3652490526
 H        -5.7510857356        8.9263503825        2.6913716132
 H        -4.2863473040        8.2200762479        2.4557858441
 H        -5.2287215927        7.5924327764        3.7314669537
 H        -5.9329732022        9.2233000710       -3.4749285647
 H        -4.4108233993        9.8363706065       -3.8452416465
 H        -5.7702537146       10.7147193114       -4.7384638065
 H        -4.1363812442       12.9196632907       -2.2311165141
 H        -5.1469082775       13.0904173292       -3.6377249060
 H        -3.7421175828       12.0078857833       -3.8378469744
 Na      -11.2157792330        2.0185920151        0.6035733621
