117

 C        -9.8188787243       -0.1712882665       -4.1778882494
 C       -11.0310113530        0.2523548725       -3.2868930488
 O       -11.6218348394        1.3454328924       -3.1825433432
 C       -11.5754346035       -1.0024726120       -2.4007904205
 C       -10.6028327570       -1.2641984233       -1.2200866209
 O        -9.6155565734       -0.5743451577       -1.2816443299
 C       -10.9115993737       -2.4603846810       -0.2821982481
 C       -10.5675118915       -2.2551325340        1.1834799760
 C       -11.5384988927       -1.2247232056        1.8356800923
 O       -12.5982495606       -0.9371879357        1.2835345053
 C       -11.0972057109       -0.5187697653        3.1561640234
 C       -11.5351445920        0.9796312831        3.0695115880
 O       -10.7686747828        1.8212030051        2.7680562083
 C       -13.0155967454        1.1861914385        3.2095477354
 C       -13.5628832496        2.4798413892        2.6498721747
 C       -12.9243897694        3.6797124794        3.4829526511
 O       -12.4830674275        3.5120081724        4.5858433902
 C       -13.2238891421        5.1829199612        2.8920679824
 C       -11.7543186799        5.5655191025        2.5181098234
 O       -11.3484650571        5.6098142264        1.3341361740
 C       -10.7610344974        5.8387861240        3.6662290566
 C        -9.5391438369        4.9766739239        3.5201567228
 C        -8.3224306517        5.5491473509        2.8811422472
 O        -8.4261244347        6.5981151664        2.2202633758
 C        -7.0204775174        4.7662747170        2.8031103919
 C        -7.1381802680        4.0759589184        1.3448587519
 O        -7.8839072742        4.4768573198        0.4853488999
 C        -6.1159458658        3.0009475561        1.0187507694
 C        -6.0684293592        2.7193277412       -0.4536339130
 C        -5.5844997602        3.9644097057       -1.2439636550
 O        -4.7705514267        4.7598420027       -0.7492771654
 C        -6.2604798887        4.4751566635       -2.5758615477
 C        -7.0668831471        5.7582124033       -2.2297264850
 O        -8.2631856612        5.5684327682       -1.9570657563
 C        -6.5037062461        7.2478349473       -2.2482243006
 C        -7.4928813585        8.2215304094       -1.5898542224
 C        -8.9236334260        8.2177492564       -2.3706704600
 O        -9.9393516207        7.8210697939       -1.8023870529
 C        -8.9989903358        8.9930898566       -3.7046055947
 C        -8.7435374944        7.8534960286       -4.7866521718
 O        -7.6112591306        7.5352853339       -5.0524293659
 C        -9.8595542359        7.0141339005       -5.3495445460
 C       -10.4644965872        9.5109630692       -3.8318008975
 C        -7.9988391806       10.0896202644       -3.9271849834
 C        -5.0789471816        4.8440402932       -3.4686936522
 C        -7.1989989717        3.3935825532       -3.1380406854
 C        -5.7903544506        5.7580429390        2.7374170930
 C        -6.7440693324        3.7834825719        3.8636934351
 C       -14.1218683374        5.1200620938        1.6152707364
 C       -13.7337603846        6.1308989005        3.9763081712
 C       -11.6991420580       -1.2559832054        4.3163731617
 C        -9.5206461906       -0.4498710611        3.2816302151
 C       -12.9789910334       -0.6492071098       -1.7626100312
 C       -11.7877238296       -2.2687448102       -3.3784518289
 H        -9.0251620836        0.5987053898       -4.1617443424
 H       -10.1529722874       -0.2823206811       -5.2087350664
 H        -9.4193914683       -1.0659017931       -3.9185861932
 H       -10.3081097530       -3.1945896230       -0.6588072168
 H       -11.9529277056       -2.8369336922       -0.3489072450
 H        -9.5793474455       -1.9786425451        1.2751498628
 H       -10.6544920533       -3.2268815968        1.6088999151
 H       -13.2289186611        1.1240750028        4.2512139368
 H       -13.6007634765        0.4300931897        2.6341818940
 H       -14.6892599983        2.5815534381        2.6094458714
 H       -13.1550952274        2.5641779981        1.7014610016
 H       -11.2889104885        5.6388666390        4.6538541646
 H       -10.5812537931        6.9576598916        3.6931790634
 H        -9.7944869514        4.1470284956        2.8472148590
 H        -9.2537753060        4.5655031854        4.5555282220
 H        -6.3908954829        2.1186998663        1.5445577881
 H        -5.1032710924        3.2447375054        1.2916645312
 H        -7.0688269516        2.5060520794       -0.7819320070
 H        -5.4742232340        1.8298100157       -0.6761498965
 H        -6.3618632615        7.5981378106       -3.2735575006
 H        -5.5726227297        7.4528607154       -1.6655713771
 H        -7.1055696924        9.2579611753       -1.5930705368
 H        -7.7163257438        7.8506614412       -0.5908823375
 H        -9.4881163446        6.2579432502       -5.9637509318
 H       -10.7132205177        7.5879996323       -5.8150184932
 H       -10.2974732325        6.5284205282       -4.4692131869
 H       -11.1461013799        8.7362989536       -3.4539621367
 H       -10.7708192529        9.6619837755       -4.8949741027
 H       -10.6930835666       10.3857465700       -3.2275162379
 H        -6.9738812131        9.8275686677       -3.7967031244
 H        -8.2775175022       11.0015521745       -3.4511382916
 H        -8.1114712962       10.3513466941       -4.9809028067
 H        -5.3996055129        5.5673718255       -4.2085629377
 H        -4.6989741354        3.9189075372       -3.9521564700
 H        -4.2874260177        5.3937290956       -2.9251849451
 H        -7.8084725377        3.7060615301       -4.0176724873
 H        -7.8197067617        3.0118292465       -2.2966862584
 H        -6.6472360059        2.4239192725       -3.4666931936
 H        -5.6477979045        5.9652027134        3.7840604841
 H        -6.0521684096        6.7392417531        2.3392812493
 H        -4.9366319896        5.3283960338        2.2697747765
 H        -6.6287154041        4.2032911394        4.8127998498
 H        -5.7399331717        3.2984003135        3.7411863927
 H        -7.5095620821        3.0170203085        3.9647448103
 H       -15.0373665490        4.7116443400        2.0338040803
 H       -13.5813201712        4.4090939450        0.9095980704
 H       -14.2362570190        6.1000942232        1.0619281304
 H       -13.1142196023        6.0011611734        4.8920102442
 H       -14.7781880039        5.9893665476        4.1471181334
 H       -13.7013528200        7.1366370404        3.7723941934
 H       -12.7474242320       -1.2357087593        4.2753628182
 H       -11.4738861216       -0.7666115959        5.2066418612
 H       -11.4000765763       -2.3162926018        4.3905853265
 H        -8.9737520080       -1.4287101285        3.5013191258
 H        -9.2941910705        0.1547877736        4.2032315908
 H        -8.9673057056        0.0608185492        2.4843735770
 H       -12.8374995800       -0.2450635877       -0.7921957307
 H       -13.5437920867       -1.5392992214       -1.5504579906
 H       -13.6363172035       -0.0769973930       -2.4314718059
 H       -12.1325834922       -3.1339776802       -2.8786889381
 H       -10.9188856775       -2.5690814716       -3.9997192262
 H       -12.5804924205       -2.0178922014       -4.0686996035
 Na       -9.3988144273        6.3727563971        0.0191160968
