117

 C        -9.7719181243       -0.4839946868       -4.2898418340
 C       -10.8100514173        0.0326977488       -3.3224321061
 O       -11.2124866820        1.1420482570       -3.2362126612
 C       -11.4828743115       -1.0332006369       -2.4240457912
 C       -10.6312656848       -1.3424286218       -1.2290780499
 O        -9.5503720447       -0.7876882525       -1.0748491537
 C       -10.9708055954       -2.3674284510       -0.1567774057
 C       -10.4630307408       -2.0371902056        1.3061322778
 C       -11.4239536163       -1.1032490242        2.0071240183
 O       -12.5293683760       -0.8166791319        1.5804539868
 C       -11.0749558393       -0.4651450299        3.3920521097
 C       -11.5960111406        1.0323688639        3.3456520098
 O       -10.7286517028        1.9196712156        3.1356179095
 C       -13.0979981726        1.4482170922        3.4622825637
 C       -13.5057407279        2.7799845076        2.8613115655
 C       -13.2279278885        4.0513024186        3.6504468708
 O       -13.0051585154        4.0039831175        4.8358013321
 C       -13.1742464064        5.4396142017        2.8050340977
 C       -11.7549874358        5.6752811023        2.3630775231
 O       -11.4493701134        5.3620460716        1.2327273727
 C       -10.6513953770        6.1870239395        3.2806010441
 C        -9.5189777424        5.1360077950        3.5136126608
 C        -8.2358504428        5.5230510944        2.7122675817
 O        -8.2576910832        6.5585101513        2.0613361515
 C        -7.0309440466        4.5667960275        2.6629124303
 C        -7.0790460504        3.8925018957        1.2842570029
 O        -7.9634781969        4.1439391295        0.4642259383
 C        -6.0522533597        2.8548820888        0.8660011904
 C        -5.8892373134        2.7599693834       -0.6786548128
 C        -5.7258369352        4.2202877961       -1.2534741461
 O        -5.0518785445        5.0258436681       -0.6796176958
 C        -6.4249853701        4.4661776230       -2.6706899569
 C        -7.3195794543        5.6865517381       -2.3531621871
 O        -8.4473567368        5.5575556741       -1.9460130394
 C        -6.6132913799        7.0303494886       -2.3187429475
 C        -7.4092582297        8.1017381675       -1.6464354250
 C        -8.7217270369        8.3446614805       -2.3122111513
 O        -9.7358496895        8.0624360134       -1.6860979576
 C        -8.8113744015        8.9219033339       -3.8145676289
 C        -8.7447953698        7.6517154036       -4.8205357769
 O        -7.6576655825        7.2152628233       -5.1883182863
 C       -10.0466075455        6.8451045595       -5.0352995661
 C       -10.1973287151        9.6259973949       -3.9781506282
 C        -7.6324756140        9.8853892431       -4.2063558603
 C        -5.3040987552        4.8382538993       -3.6870488497
 C        -7.2725716286        3.3223934620       -3.2707912551
 C        -5.6727478236        5.3841526928        2.5815909592
 C        -6.9688604806        3.5087470642        3.8358989537
 C       -14.1936279680        5.3648058876        1.5845858265
 C       -13.6731043101        6.6035998360        3.7842763545
 C       -11.9241891767       -1.3874498481        4.3414151260
 C        -9.5984250118       -0.4401599639        3.7777788294
 C       -12.9261388144       -0.6027140599       -2.0521719574
 C       -11.6870675558       -2.3006186710       -3.1992341156
 H        -9.1169920349        0.2886816692       -4.5444844687
 H       -10.2745488227       -0.6849477450       -5.1932683625
 H        -9.2522334329       -1.4326338087       -3.9788519081
 H       -10.5399674274       -3.3011083715       -0.5317013120
 H       -12.0016651596       -2.4517117951       -0.1241814840
 H        -9.4910806453       -1.6228145029        1.2109762845
 H       -10.3551738257       -2.9302450968        1.8484139376
 H       -13.4652525872        1.4806137286        4.4707215576
 H       -13.7414496420        0.7479815671        2.8987476931
 H       -14.6056964207        2.7717535797        2.8306109632
 H       -13.1984098693        2.9224365815        1.7704741853
 H       -11.0478866266        6.6121493664        4.2398040851
 H       -10.2870815079        7.1628949493        2.9327840328
 H        -9.7672243509        4.0591136714        3.2041075438
 H        -9.2183835481        5.0335089820        4.5571664830
 H        -6.2495647188        1.9072828564        1.2861288367
 H        -5.0374926140        2.9870029962        1.2591190403
 H        -6.7729268536        2.2945679592       -1.1377021060
 H        -5.0201055870        2.1753166838       -0.8434197675
 H        -6.2822483615        7.5028615831       -3.2898279976
 H        -5.7053311339        6.9545568568       -1.7380506630
 H        -6.7727301677        9.0216510627       -1.5714357765
 H        -7.5909438103        7.8113950943       -0.6217642640
 H        -9.7953968182        5.7723116034       -5.3182593643
 H       -10.6729088641        7.1372598617       -5.8061037944
 H       -10.5959123654        6.9131623928       -4.0926739560
 H       -11.0319729621        9.2963273059       -3.3590266772
 H       -10.4702295338        9.6410204042       -4.9961907230
 H        -9.9973290174       10.6957566248       -3.8166817504
 H        -6.6880412183        9.3336680378       -4.2180634355
 H        -7.5644572037       10.7047404537       -3.4690730126
 H        -7.7482824501       10.2925989696       -5.1753541629
 H        -5.9089881384        5.4424556868       -4.4098996687
 H        -4.9406581792        4.0028904935       -4.2787604858
 H        -4.4319229277        5.3202350519       -3.2358207910
 H        -7.9570574977        3.7560515316       -4.0803166048
 H        -8.0114031542        2.7370182981       -2.6079758160
 H        -6.5928092956        2.5671805735       -3.7273269722
 H        -5.4717781593        5.9960966848        3.4601216137
 H        -5.5933828108        5.9487644734        1.6623766655
 H        -4.8563700389        4.6395729552        2.5657793262
 H        -6.8531460476        3.9612866709        4.8435352382
 H        -6.2102126299        2.8083677911        3.5879987955
 H        -7.9219132595        2.9796182857        3.9533584107
 H       -15.1757916982        5.1516804630        2.0983428576
 H       -13.7360403695        4.6985641676        0.8569250831
 H       -14.2892773860        6.3481224337        1.1011689473
 H       -13.4150265072        6.5054742430        4.7636881299
 H       -14.7150138030        6.6393599140        3.8948129695
 H       -13.3242294328        7.6000514682        3.3840082277
 H       -12.9805481218       -1.2803122437        4.2593513349
 H       -11.5548269140       -1.3923718151        5.3511326494
 H       -11.7587015850       -2.3613653740        3.9939630240
 H        -9.1629207585       -1.4139467728        3.8389747035
 H        -9.4097475077       -0.0427214283        4.8101159114
 H        -8.9460583239        0.2065441169        3.1050052640
 H       -13.0814470826        0.4791035637       -1.9530586566
 H       -13.1916471986       -1.0703919729       -1.1058035932
 H       -13.6158910634       -0.8655042150       -2.8253820111
 H       -12.0339976694       -3.1622851435       -2.6198890540
 H       -10.8038687128       -2.6985747712       -3.6685770072
 H       -12.4483788546       -2.1448468564       -3.9821655690
 Na       -9.4674857718        6.1922975205        0.0384931086
