117

 C        -9.5476061399       -0.6822140931       -4.2539016978
 C       -10.6633568176       -0.1758824633       -3.3312884872
 O       -10.9935393261        0.9737749276       -3.3073669146
 C       -11.4123999448       -1.1746315446       -2.3636782354
 C       -10.5063386303       -1.2435466650       -1.1618740181
 O        -9.4577872427       -0.5981608933       -1.1581356050
 C       -10.9952954560       -2.2184650458       -0.0378526315
 C       -10.4900024995       -1.7365608149        1.3263277665
 C       -11.5403614121       -0.9157076551        2.0918259930
 O       -12.6350858767       -0.7102884790        1.6151451961
 C       -11.2232607787       -0.3484575693        3.5185714058
 C       -11.5600061597        1.1682530101        3.5223436156
 O       -10.6367091084        1.9850659387        3.6294201089
 C       -13.0287502104        1.6216588134        3.5839992418
 C       -13.2796366018        2.8813032488        2.7249743076
 C       -13.1953030750        4.1532073132        3.5407650959
 O       -13.0514909608        4.2286930410        4.7415952331
 C       -13.1373938340        5.5213086853        2.7475426056
 C       -11.6627715164        5.8644033771        2.2489859295
 O       -11.3347080553        5.7611327979        1.0707059331
 C       -10.6478790236        6.1934693729        3.3493446249
 C        -9.5119966341        5.2232636721        3.4470958836
 C        -8.3363589013        5.5665561978        2.5209500870
 O        -8.2631767392        6.5861113250        1.8048113236
 C        -7.1404231954        4.5510214906        2.5325687252
 C        -7.2167750311        3.8665141291        1.1100388131
 O        -8.2271711347        3.8944945109        0.4478048374
 C        -6.0980072451        2.8726710553        0.7632410751
 C        -5.9782901846        2.6047851439       -0.7664368104
 C        -5.7419638635        3.9526974970       -1.4100291654
 O        -5.0327320918        4.7445174479       -0.8850923342
 C        -6.4250692478        4.3660293418       -2.8603337855
 C        -7.2177876717        5.6576477612       -2.4436860822
 O        -8.3828288635        5.5331465592       -2.2681212052
 C        -6.4961616610        7.0067172313       -2.2031910699
 C        -7.4165102689        8.0077032595       -1.5229862318
 C        -8.7876880888        8.3132637126       -2.2151877213
 O        -9.7566545196        7.9801409759       -1.5901557734
 C        -8.8254755821        8.8751452545       -3.7073322532
 C        -8.9071394720        7.4999229333       -4.4991832494
 O        -7.8244153298        7.0811541049       -4.8807825074
 C       -10.2113225000        6.7706974234       -4.6184128126
 C       -10.1847711916        9.6901968151       -3.9253999329
 C        -7.5732212761        9.7444251167       -4.1106216926
 C        -5.2612230094        4.6891033338       -3.8436429192
 C        -7.2912039864        3.1474415311       -3.3862690602
 C        -5.8556999355        5.3925375089        2.7019008915
 C        -7.1656279819        3.3580365584        3.6580527599
 C       -14.0666488286        5.4198866989        1.4590634068
 C       -13.5304009943        6.7408121646        3.6261193788
 C       -12.1343399253       -1.0665528773        4.6052407851
 C        -9.6944386779       -0.4722742977        3.6824264518
 C       -12.7432431560       -0.5217453555       -1.9378453645
 C       -11.7662531267       -2.5402809017       -3.0369652047
 H        -9.5586098421       -0.2364950589       -5.2652888319
 H        -9.7483578309       -1.7585654600       -4.4180228961
 H        -8.5070722462       -0.5586658246       -3.8200664343
 H       -10.5202106607       -3.1644996993       -0.3029802290
 H       -12.1114713209       -2.3531524897       -0.0164953360
 H        -9.6391386061       -1.0513331486        1.1616436517
 H       -10.0271331725       -2.6185757044        1.8315984749
 H       -13.2092909089        1.9173874973        4.6003700950
 H       -13.8727296457        0.9202182654        3.3151774223
 H       -14.2465493270        2.8873566221        2.2431436553
 H       -12.6345286059        3.0115367394        1.9118159102
 H       -11.2263477608        6.2914965751        4.3112586763
 H       -10.3140769372        7.2235910893        3.2309459475
 H        -9.7751127924        4.2140819207        3.2918525845
 H        -9.0729810917        5.1821795827        4.4498758759
 H        -6.3321428257        1.9849236770        1.3344209145
 H        -5.1073155600        3.0560119524        1.2391068534
 H        -6.8713783157        2.0358550884       -1.1030694527
 H        -5.0366173058        2.1009438396       -1.0312190226
 H        -6.0950180567        7.4371273343       -3.1445159345
 H        -5.5511902675        6.9141862807       -1.6180436997
 H        -6.7895607073        8.9157736851       -1.3950651650
 H        -7.5516733536        7.7162916475       -0.5104527399
 H        -9.9326157600        5.6814956906       -4.7270897827
 H       -10.7683219088        6.9279994305       -5.4883079656
 H       -10.7895787184        6.9396569140       -3.7018757599
 H       -10.9990756678        9.1587150171       -3.4222884310
 H       -10.4412149804        9.8896672444       -4.9413776483
 H       -10.0729117412       10.6853934023       -3.4578247348
 H        -6.6796588866        9.0952988704       -4.1805300337
 H        -7.3131133315       10.5154584380       -3.3545160711
 H        -7.7414158622       10.0885127260       -5.1097414082
 H        -5.5883527215        4.8080962084       -4.8870933775
 H        -4.7331790656        3.7467890637       -3.8206359555
 H        -4.6180379148        5.4352441476       -3.4432075097
 H        -7.5100458001        3.2744242893       -4.3889935572
 H        -8.2582387820        3.1090673532       -2.9670242154
 H        -6.8056836394        2.2427045766       -3.2707022641
 H        -5.8603471880        5.5957578693        3.7878259548
 H        -5.8845711416        6.3573118564        2.1721043116
 H        -4.8733303435        4.9735815905        2.5996435476
 H        -7.5249548214        3.7524773444        4.6302191382
 H        -6.1236635907        3.0229007108        3.7072262536
 H        -7.6752679266        2.4249873327        3.3578965857
 H       -15.0517708582        5.1688585464        1.8365575702
 H       -13.6584791089        4.6680053040        0.8254065182
 H       -14.1144189860        6.3702676764        1.0192393075
 H       -13.0443059276        6.7244093709        4.6025709627
 H       -14.5793925756        6.7415214379        3.9102901661
 H       -13.2892806607        7.7534822425        3.0728365560
 H       -13.1577032411       -1.2256562501        4.2303301728
 H       -12.1194797721       -0.4420456888        5.5404246283
 H       -11.6205776076       -2.0179936960        4.9563292096
 H        -9.3698138861       -1.4458536341        3.6904880832
 H        -9.3956815325        0.0046490946        4.6081962395
 H        -9.0969892243        0.0326129589        2.9195273833
 H       -12.6276901461        0.4175999288       -1.4059662893
 H       -13.3628915571       -1.1952300793       -1.3547176293
 H       -13.3105652875       -0.1339111467       -2.7930738095
 H       -12.4976744221       -3.1395168816       -2.5696506230
 H       -10.9185238586       -3.2211826804       -3.1474695655
 H       -12.0833844748       -2.3870800444       -4.0754629887
 Na       -9.4447661645        6.1376485769       -0.1450171665
