117

 C        -9.5687462235       -0.7945630157       -4.2033079556
 C       -10.7036294412       -0.2037060875       -3.3864911636
 O       -10.9264784940        0.9625660440       -3.4369521955
 C       -11.3744396330       -1.1630738377       -2.4156310636
 C       -10.4287777744       -1.3162434208       -1.1562705720
 O        -9.4332735976       -0.6074445515       -0.9932194812
 C       -10.9575212121       -2.1349937128        0.0191250961
 C       -10.5208717741       -1.6118475200        1.4110288482
 C       -11.6046227473       -0.8526410026        2.0865532396
 O       -12.7474786631       -0.6569469818        1.6791565713
 C       -11.1808066060       -0.2841029709        3.5133732188
 C       -11.4864141201        1.2321996462        3.5675758136
 O       -10.5444420479        2.0598209462        3.7234632296
 C       -12.9498598200        1.6909381790        3.6081530598
 C       -13.2721786699        2.8673346257        2.6523079796
 C       -13.1216959044        4.2808285114        3.4540715146
 O       -13.0508846725        4.1677860900        4.6652449144
 C       -13.0917760071        5.6802846139        2.6899952150
 C       -11.6685460557        5.9165865688        2.2317269219
 O       -11.3755555625        5.8691975850        1.0624395485
 C       -10.6634955669        6.2865801672        3.3403825980
 C        -9.5272118143        5.2505947783        3.5141400685
 C        -8.3099610332        5.4584952891        2.5811607361
 O        -8.3516148918        6.4373604450        1.8442599892
 C        -7.1134044398        4.5827940667        2.5003326440
 C        -7.2250916511        3.7519217113        1.1044291190
 O        -8.1785114932        4.0135536029        0.3427070744
 C        -6.1120811133        2.8159067238        0.7108565929
 C        -6.0972573943        2.5720921777       -0.7961978634
 C        -5.6911038873        3.8855949246       -1.4716662266
 O        -4.9379933251        4.7052996872       -0.9480915129
 C        -6.3627364431        4.2721398679       -2.7937487602
 C        -7.2361142978        5.5746739371       -2.4372200252
 O        -8.4848167751        5.5675540191       -2.2535651511
 C        -6.4736824805        6.8803290025       -2.1785205081
 C        -7.3561438672        7.9327566560       -1.5079958805
 C        -8.7203275658        8.2509736130       -2.2079679132
 O        -9.7973449568        8.0504209388       -1.6094182204
 C        -8.8922810995        8.8211436115       -3.6018973239
 C        -8.9035720948        7.4511759492       -4.4402831811
 O        -7.8663259313        6.9698025165       -4.8997801048
 C       -10.2167957533        6.7675691075       -4.4883474350
 C       -10.1334060685        9.6927426036       -3.7875832309
 C        -7.7208604728        9.7092499821       -4.0942116462
 C        -5.2363269459        4.5824149147       -3.8413785217
 C        -7.2155865779        3.2562304108       -3.4609665385
 C        -5.8389184396        5.3638270817        2.6446631195
 C        -7.2305108418        3.4412071192        3.4857880249
 C       -14.0122393756        5.4637881811        1.3931134823
 C       -13.6650353357        6.8033789329        3.5447482028
 C       -12.1058268458       -0.9856729376        4.5351322524
 C        -9.7042140669       -0.5012410127        3.8803185756
 C       -12.6951865480       -0.4781381531       -1.9389016420
 C       -11.7291565114       -2.5619682746       -3.0288960972
 H        -9.6772795866       -0.5411688889       -5.2428121887
 H        -9.5631159136       -1.8973287198       -4.1610012693
 H        -8.5416444630       -0.3750117385       -3.8568121903
 H       -10.8885156854       -3.2226631409       -0.1022779274
 H       -11.9618056959       -1.9080292982        0.0166501693
 H        -9.6515930588       -1.0107934085        1.4235123467
 H       -10.2530721590       -2.4391863458        1.9946909908
 H       -13.2816986849        1.9852283945        4.5966745529
 H       -13.6608653800        0.9434192135        3.2753356077
 H       -14.2884118478        2.8139377338        2.4204044835
 H       -12.7910728914        2.8351054709        1.6467622473
 H       -11.2477760352        6.4724052707        4.2855011257
 H       -10.3351253405        7.3442396872        3.0767211696
 H        -9.9068679419        4.2144330728        3.2709091528
 H        -9.1974178614        5.1270231749        4.5254631218
 H        -6.0556224318        1.9391979651        1.2852303251
 H        -5.1987519686        3.2848797845        1.0562333188
 H        -7.1463466917        2.3356247548       -1.0442113068
 H        -5.4311039351        1.8013020075       -1.1437213513
 H        -6.0308867864        7.2901801402       -3.1568516439
 H        -5.5536961401        6.7355811897       -1.6029904901
 H        -6.7641754823        8.8601576219       -1.3990615135
 H        -7.4726700888        7.6303982233       -0.4730426286
 H       -10.0391986922        5.7026899546       -4.7467785649
 H       -10.7807946408        7.0735049342       -5.3374033009
 H       -10.7850947146        6.8960858575       -3.5685816472
 H       -11.0605571366        9.1978775426       -3.6178938987
 H       -10.1189425115       10.1225259773       -4.7524197434
 H       -10.0480554113       10.5150485573       -3.0922739997
 H        -6.8966577054        9.0235033839       -4.3405339976
 H        -7.3025243379       10.3116145832       -3.2760391059
 H        -7.9849241040       10.2394592289       -4.9954675103
 H        -5.7063270755        4.7574052509       -4.8249887597
 H        -4.6266896898        3.6823148025       -3.9270158365
 H        -4.6674798744        5.4410072136       -3.4627197741
 H        -7.5894601106        3.5945970920       -4.4398244037
 H        -8.1201249546        3.0220490418       -2.9364787056
 H        -6.6607636682        2.3678584569       -3.6206907166
 H        -5.7479419024        5.7916572425        3.6615669655
 H        -5.7715500840        6.1775215400        1.9052000611
 H        -4.8878882865        4.7648902634        2.6096607785
 H        -7.0938403927        3.7983696630        4.5650905619
 H        -6.4878879125        2.7112448768        3.2077639278
 H        -8.1477550990        2.8668739764        3.3131328891
 H       -14.9585462706        5.0937177702        1.8121278166
 H       -13.5969643193        4.7377319574        0.7349676436
 H       -14.1832669788        6.4338394515        1.0201516652
 H       -13.3046883058        6.8282719072        4.5760003173
 H       -14.7794114074        6.6577005954        3.6097743353
 H       -13.4958188235        7.7913159921        3.0775581608
 H       -13.0628494286       -1.2357333901        4.0261702018
 H       -12.3151640089       -0.3598491405        5.4380855005
 H       -11.6026381079       -1.8277093155        4.8966867802
 H        -9.3861953302       -1.5122666371        4.0424904354
 H        -9.4928505961        0.1444415096        4.7138142095
 H        -9.0257515710       -0.1623089599        3.1000924290
 H       -12.5658550109        0.4186825807       -1.3238677203
 H       -13.2987599599       -1.2229202424       -1.4069147380
 H       -13.2987771412       -0.0613110160       -2.7137120449
 H       -12.5179481664       -3.1151856043       -2.4733580909
 H       -10.9372293082       -3.2756802019       -3.1901891688
 H       -12.1273053512       -2.4220782665       -4.0441583660
 Na       -9.4677194918        6.0387467549       -0.1550255304
