117

 C        -9.1415704671       -1.1431038115       -3.9050648490
 C       -10.4514380796       -0.4459266764       -3.4210633617
 O       -10.6843937741        0.6151524425       -3.9816660924
 C       -11.2579351270       -1.0417333987       -2.1957053922
 C       -10.3444103112       -1.1686814666       -0.9846049561
 O        -9.3016117766       -0.5878421560       -0.9919372338
 C       -11.0629252198       -1.8937763194        0.2269160732
 C       -10.5496951498       -1.4749997523        1.6165440498
 C       -11.6196864191       -0.6322211602        2.4244921563
 O       -12.6750307175       -0.3425642024        1.9222901209
 C       -11.2458692924       -0.0346246552        3.8791971109
 C       -11.4197534574        1.5037386459        3.6329772927
 O       -10.4757345196        2.1641721544        3.3865587635
 C       -12.8191337818        2.0015525337        3.4935533354
 C       -13.0290664030        3.1942597788        2.5869053811
 C       -13.0972616218        4.5076110295        3.3329822868
 O       -12.8683132521        4.6146808761        4.5133696751
 C       -13.2630595955        5.8176066046        2.4482667147
 C       -11.7461385771        6.1514937734        2.1256106109
 O       -11.3491615154        6.0311647108        0.9614590507
 C       -10.6553315699        6.4672903987        3.2733723697
 C        -9.7120172378        5.3324805236        3.4336409976
 C        -8.4921639939        5.5327793143        2.5321835703
 O        -8.3982045063        6.5276942687        1.8756927756
 C        -7.3211303848        4.4216685423        2.4099708429
 C        -7.3841674854        3.7588426466        0.9240757338
 O        -7.9455948207        4.2960695584        0.0301495240
 C        -6.5324535783        2.4583404463        0.5958492173
 C        -6.5592769541        2.2994852509       -0.9443694752
 C        -5.7389171576        3.5257096043       -1.7127130237
 O        -4.6991624456        3.9425366296       -1.3197734628
 C        -6.2989264402        4.1426757301       -3.0943046534
 C        -7.1785338903        5.3432399872       -2.6310537787
 O        -8.3671603218        5.2277237741       -2.4695628013
 C        -6.4276773977        6.6014332178       -2.2436959410
 C        -7.2359544571        7.6911942950       -1.4298802838
 C        -8.6160466305        8.1373448024       -1.9512667411
 O        -9.5893058475        7.9974680183       -1.1959688344
 C        -8.8998777452        8.6556677030       -3.3943663989
 C        -9.1366935786        7.3358139005       -4.4187361333
 O        -8.1930520595        7.0240472946       -5.0786849594
 C       -10.4825971836        6.6664463380       -4.2624637341
 C       -10.2596892695        9.5341711046       -3.2631572772
 C        -7.6964109020        9.4747103918       -3.8903958828
 C        -5.0838625218        4.5675135891       -3.9845027191
 C        -7.2356413257        3.1149532429       -3.7389832050
 C        -5.9707366676        5.1406011100        2.6812707882
 C        -7.5473806954        3.2514562984        3.3739888027
 C       -14.0392717690        5.6727446849        1.1510377540
 C       -13.8663288507        7.0357341978        3.2868320659
 C       -12.2053575046       -0.6982354713        4.9045666642
 C        -9.7614189575       -0.3336488788        4.3424302829
 C       -12.5254284477       -0.2244553405       -1.9525317594
 C       -11.6430316969       -2.4612336105       -2.6286656347
 H        -9.2001789446       -2.2994686119       -3.8141284508
 H        -8.3754004923       -0.7737081207       -3.1697403654
 H        -8.8635565540       -0.9438169096       -4.9063380574
 H       -10.8395679993       -2.9030851469        0.0507170139
 H       -12.1270768012       -1.8827770977        0.1511055752
 H        -9.7486239712       -0.7892782954        1.4830211754
 H       -10.0670752924       -2.2599780540        2.1172625784
 H       -13.1730684000        2.2957642780        4.5140551665
 H       -13.5125241980        1.2757841945        3.2088999871
 H       -13.8488308527        3.1448354335        1.8359833004
 H       -12.0877561688        3.2181745620        2.0613158908
 H       -11.1715088677        6.6485879549        4.2211997144
 H       -10.1186021859        7.3676104658        2.7991670829
 H       -10.1143653806        4.3052364598        3.2575504621
 H        -9.3219765134        5.3570869874        4.4413674829
 H        -6.8416079848        1.5810705785        1.1533657269
 H        -5.5267907984        2.6407527109        0.9210007864
 H        -7.5743143723        2.2285846248       -1.2653511699
 H        -6.0678117962        1.3676423277       -1.2803030009
 H        -6.0010337187        7.1351332427       -3.1298367230
 H        -5.4907140493        6.2960908432       -1.6938414722
 H        -6.5760868780        8.5321471645       -1.3211307040
 H        -7.4669666644        7.2149972700       -0.4344342632
 H       -10.6052136255        5.9730931853       -5.0508356199
 H       -11.3218785918        7.4313638583       -4.3354372164
 H       -10.5344618025        6.1021779356       -3.3462087256
 H       -10.9674854556        9.0438053943       -2.6284678727
 H       -10.6955938792        9.4935145460       -4.2706101138
 H       -10.1196631369       10.5139779701       -2.9019014863
 H        -6.7703364961        8.9015924998       -3.8037072163
 H        -7.6556471450       10.4103127461       -3.3310755923
 H        -7.9425172382        9.8114446815       -4.9377297970
 H        -5.6041784595        5.0185981486       -4.7793779235
 H        -4.5317492801        3.6583746237       -4.2662234171
 H        -4.4675202331        5.3308598519       -3.5105816849
 H        -7.3955660477        3.3000164783       -4.7513453182
 H        -8.1438377281        3.0050888433       -3.2002154006
 H        -6.7259299097        2.1605179129       -3.7300713814
 H        -5.8862498977        5.4191605796        3.7428295518
 H        -5.8153164446        6.1353910419        2.2213409479
 H        -5.1399596161        4.5012768690        2.3567052696
 H        -7.7917417858        3.7504021098        4.2890475691
 H        -6.5720423255        2.7835951717        3.6824595304
 H        -8.3505195130        2.5788794628        2.9816051182
 H       -14.9096684502        5.1529252359        1.3786093690
 H       -13.4782665991        4.9982210285        0.4954013802
 H       -14.1695277913        6.6419495979        0.6644116461
 H       -13.1791470913        7.3463346208        4.1241962156
 H       -14.8956825399        6.7830341123        3.5664621225
 H       -13.9623119779        7.9293656963        2.6974563987
 H       -13.2303933861       -0.4562572266        4.6687515699
 H       -11.9913345390       -0.2779382560        5.8654507488
 H       -11.9520785331       -1.7982999842        4.7992401744
 H        -9.5894954806       -1.4091970143        4.5801664856
 H        -9.7184704091        0.1371757094        5.2942203239
 H        -8.9838851390        0.0054932938        3.7217098343
 H       -12.2898934065        0.8243818632       -1.7920242346
 H       -13.1361511191       -0.5238732398       -1.0976147207
 H       -13.2343119400       -0.3533928928       -2.7856045608
 H       -12.5301812890       -2.7753022297       -2.0741392490
 H       -10.8576116080       -3.2146869050       -2.5549209282
 H       -11.9839762597       -2.4870895851       -3.6456007925
 Na       -9.4350352494        6.0120379742       -0.0265070555
