117

 C        -8.8445215687       -1.4237258459       -3.4879677019
 C       -10.1634784151       -0.6405886953       -3.3001235500
 O       -10.5639427744        0.3054461354       -3.9904879666
 C       -11.1081619434       -1.0976135969       -2.1482236507
 C       -10.3335030551       -1.0515750206       -0.8445239681
 O        -9.3837227536       -0.3269555041       -0.7303044336
 C       -10.8443087343       -1.8653004735        0.3645634245
 C       -10.4311395487       -1.2383320009        1.6748541293
 C       -11.6332025845       -0.6757536258        2.4246719654
 O       -12.7360847914       -0.7095035168        1.9636988454
 C       -11.3063913916        0.0537262980        3.7576790490
 C       -11.5229263684        1.6437888557        3.5274240855
 O       -10.5806622528        2.2762677237        3.0919483277
 C       -12.8618737046        2.2169744148        3.8489819168
 C       -13.2705736554        3.3060641288        2.7717959039
 C       -13.1818914788        4.6653558840        3.4123860708
 O       -13.1340216940        4.8129632897        4.6013617048
 C       -13.1989731389        5.9330460542        2.4614722046
 C       -11.7258942445        6.1511357796        1.9613645019
 O       -11.3986081594        5.9433836291        0.8169007486
 C       -10.5595275502        6.4941576870        3.0363715247
 C        -9.6578087927        5.3219247197        3.2310004313
 C        -8.3193413816        5.5439132792        2.5404522852
 O        -8.0771059739        6.5807212514        1.9927469258
 C        -7.3027662136        4.3039890082        2.4107879256
 C        -7.4466350720        3.7841155690        0.9613312725
 O        -8.1723752833        4.2215382670        0.1358791476
 C        -6.6187493723        2.6145778593        0.6273340196
 C        -6.6995778349        2.2861823654       -0.9179660945
 C        -5.8881611013        3.2853973998       -1.8009381459
 O        -4.8344996828        3.6583380620       -1.3651840453
 C        -6.4111596857        3.9120196689       -3.1125943512
 C        -7.1703199481        5.2421260945       -2.6681707435
 O        -8.3808278223        5.1971739170       -2.4629345731
 C        -6.4281204526        6.5778696929       -2.5310743492
 C        -7.2018623461        7.5925727880       -1.6409628853
 C        -8.5973851486        8.0846037306       -2.1132966314
 O        -9.4890215636        8.0273955732       -1.2504503561
 C        -8.9015361223        8.7377980796       -3.4353909761
 C        -9.1517982339        7.4103765973       -4.3372389605
 O        -8.3317064319        7.0860376403       -5.1229875224
 C       -10.4744628368        6.6749733706       -4.1683060575
 C       -10.1791041083        9.6694498562       -3.2611305654
 C        -7.6471299450        9.4904032908       -3.9023577315
 C        -5.1430423288        4.2298857641       -4.0127658523
 C        -7.3128890084        2.9560129061       -3.8228455223
 C        -5.8089415520        4.8482291670        2.6984103814
 C        -7.6454587945        3.0919223139        3.3655239412
 C       -14.2518848633        5.6743480310        1.2912158823
 C       -13.6696927344        7.1686318442        3.2135621430
 C       -12.3117672833       -0.4074651805        4.8936657471
 C        -9.8506846895       -0.1542948643        4.2857661965
 C       -12.3443600420       -0.0199257469       -2.0531197939
 C       -11.7506323334       -2.4543055883       -2.4700620141
 H        -8.3754504334       -1.9044824926       -2.5854473597
 H        -8.1286684634       -0.8195023030       -4.0311256404
 H        -9.1241841616       -2.1814526525       -4.1274534530
 H       -10.4432011592       -2.9503731106        0.2498711765
 H       -11.9464648708       -1.9277920452        0.3767455620
 H        -9.7838157796       -0.2868244666        1.4673460805
 H        -9.7263921768       -1.9394901057        2.2324875036
 H       -12.9980575659        2.6517939130        4.8622302545
 H       -13.6528888863        1.4797955895        3.7795259630
 H       -14.2004993981        3.0731020719        2.3810233643
 H       -12.5249668100        3.2924389461        1.9566992525
 H       -10.9254966929        6.8629816286        3.9483860659
 H        -9.9440409323        7.1598712131        2.4199425586
 H       -10.0187009686        4.3677761693        2.8411687769
 H        -9.3971802113        5.1960966661        4.2366217686
 H        -6.9666757824        1.7344342630        1.2244204221
 H        -5.5618032529        2.8561960953        0.9468752878
 H        -7.7435352522        2.0734650576       -1.2507292668
 H        -6.1902531928        1.3021183782       -1.0312329466
 H        -6.2440868760        7.0216036983       -3.5196774796
 H        -5.4691936028        6.4168195340       -2.1028687430
 H        -6.5552498513        8.4526678310       -1.4966368077
 H        -7.4167915863        7.0463807877       -0.7278053523
 H       -10.5127556066        5.7498528895       -4.6515636851
 H       -11.2701510400        7.4285913280       -4.5206354623
 H       -10.7017958729        6.4835407216       -3.1225093461
 H       -11.0832033933        9.1087247204       -2.9778457813
 H       -10.3678328838       10.2596059192       -4.2063357463
 H        -9.9131200001       10.3516232714       -2.4541485440
 H        -6.9161866815        8.7751231615       -4.2009318603
 H        -7.3729820136       10.1913466328       -3.1556254109
 H        -7.8842080204       10.1656676703       -4.7409164304
 H        -5.3850442128        4.6628551105       -4.9482863510
 H        -4.7705422267        3.2093838774       -4.0803904484
 H        -4.3733367154        4.7582448190       -3.4126093557
 H        -7.4827302367        3.3678238910       -4.8196252367
 H        -8.2507401772        2.8656819107       -3.2830732907
 H        -6.8776549962        1.9395827277       -4.0366774116
 H        -5.8102355985        5.2085104021        3.6905879325
 H        -5.6275716661        5.7641174884        2.1886289619
 H        -4.9507632989        4.2278913384        2.4719960585
 H        -7.9264929968        3.3886751519        4.3511511120
 H        -6.7763608072        2.4570667746        3.3731500768
 H        -8.5143441457        2.6685739296        2.8786270384
 H       -15.2449997941        5.6022334217        1.7286413477
 H       -14.0142826007        4.8286927303        0.6114657382
 H       -14.1320224018        6.5783031298        0.6418011983
 H       -13.1967648049        7.1485704464        4.2434601552
 H       -14.7763561061        7.2185361065        3.3607446911
 H       -13.2705184502        7.9927135720        2.7447475575
 H       -13.2410173344       -0.7863094314        4.4636779525
 H       -12.3733094646        0.4307227947        5.5922393691
 H       -11.7945485707       -1.2676159274        5.3566157554
 H        -9.5860160057       -1.2638632677        4.3015062748
 H        -9.7098468949        0.1362615712        5.3223760288
 H        -9.1749741655        0.4471461001        3.6915142887
 H       -11.9687794344        0.9263700117       -1.6803392255
 H       -13.1523403264       -0.2432556979       -1.3514211847
 H       -12.7830714401        0.0800627389       -3.0265962710
 H       -12.4741433649       -2.8142458153       -1.6939097223
 H       -11.0362588572       -3.2514760163       -2.6252447627
 H       -12.3223195636       -2.3524904975       -3.3820032352
 Na       -9.3006927997        6.2021302315       -0.1503453999
