117

 C        -8.8075887369       -1.6050297460       -3.4411571225
 C       -10.0595232959       -0.6909453693       -3.3815159374
 O       -10.2660659310        0.1849179266       -4.1852204914
 C       -11.1251815385       -1.0152046947       -2.1755808865
 C       -10.2851084973       -1.0015923058       -0.8244462858
 O        -9.4435171529       -0.0967478636       -0.6739897412
 C       -10.7157753134       -1.9611542950        0.3810383754
 C       -10.3670418740       -1.4101163114        1.8341153409
 C       -11.5469778754       -0.7833688079        2.6411145204
 O       -12.6916883191       -0.8482128762        2.2081329679
 C       -11.3158831470        0.1221640028        3.9550608522
 C       -11.6960349764        1.6828874961        3.5346357680
 O       -10.8330050713        2.2193896272        2.8112315410
 C       -13.1339592054        2.2658205222        3.8383820061
 C       -13.4244330958        3.4384954674        2.8969129541
 C       -13.3103424142        4.8489348245        3.5120989152
 O       -13.1624563147        5.0005706518        4.7017196332
 C       -13.2334483859        6.0478431491        2.4961420599
 C       -11.7709012406        6.0793301911        1.9385082422
 O       -11.5317547995        5.7776702693        0.7788929842
 C       -10.6722002428        6.5153353109        2.9061057538
 C        -9.6146967040        5.3054904654        3.2217031396
 C        -8.1992866765        5.4692382953        2.4268154903
 O        -7.8765460108        6.5640902005        1.9422293862
 C        -7.2515427308        4.1863302598        2.4731281107
 C        -7.4807058906        3.4663903326        1.1157464965
 O        -8.1239844421        4.1054952783        0.2640003289
 C        -6.6614028850        2.3036033801        0.5208276274
 C        -6.7294740081        2.2315323873       -1.0233353863
 C        -5.8637393447        3.2512162831       -1.8292667072
 O        -4.8346807223        3.7433135251       -1.3275561444
 C        -6.5122025537        3.9063429573       -3.1357214508
 C        -7.2905685707        5.1792762478       -2.5896683849
 O        -8.4232182970        5.0868983777       -2.1334688036
 C        -6.5975175813        6.5121513462       -2.7972151973
 C        -7.0376623532        7.5901479802       -1.8185755406
 C        -8.4304356009        8.1678558306       -2.1167046460
 O        -9.3219681415        8.0584878067       -1.3051240009
 C        -8.8175818452        8.7767995747       -3.5194988401
 C        -9.0923446310        7.4816182970       -4.4063180549
 O        -8.3055942737        7.1123059434       -5.2683894625
 C       -10.4983450253        6.9027124976       -4.2090820257
 C       -10.0160457961        9.7383858901       -3.4365104771
 C        -7.6221260962        9.6127628735       -4.2064353186
 C        -5.3677692812        4.2327720490       -4.1271717310
 C        -7.5304551350        2.9656978327       -3.8994813319
 C        -5.7693578578        4.7201966691        2.6285949853
 C        -7.5465088171        3.2701790002        3.7829386283
 C       -14.1294972230        5.8227321456        1.2292069539
 C       -13.5850811447        7.3616097622        3.1894919749
 C       -12.3632172041       -0.4778854705        4.9974361009
 C        -9.8857865983        0.1054982096        4.4859605898
 C       -12.2205718835        0.0016248251       -2.1203478067
 C       -11.7206367456       -2.4187289557       -2.4251548341
 H        -8.2496151205       -1.1948935311       -2.6277708945
 H        -8.1925320838       -1.5542519293       -4.3679628109
 H        -8.9986235114       -2.7104686181       -3.1220200707
 H       -10.3686838590       -2.9278018426        0.2567501764
 H       -11.7956022863       -1.9605122364        0.2965033136
 H        -9.5401575645       -0.7789798335        1.7610289246
 H       -10.0485386724       -2.2633214718        2.4041481520
 H       -13.3723207496        2.5771012778        4.8429856849
 H       -13.9376034966        1.5418458359        3.6437968706
 H       -14.5038548480        3.3026685271        2.5801999818
 H       -12.7893186230        3.3422536662        2.0223418228
 H       -11.3080295831        6.5703428269        3.8421437276
 H       -10.0712237814        7.3872188822        2.5850999633
 H        -9.9523706344        4.3129322105        2.9595503229
 H        -9.3450297158        5.3874841783        4.3224335871
 H        -7.0210498773        1.3542525331        0.8967370802
 H        -5.6335674844        2.4813154137        0.7827991638
 H        -7.7303636075        2.2837774205       -1.4273444854
 H        -6.4154872772        1.2140172725       -1.2222854067
 H        -6.6273626550        6.8016584082       -3.8662257043
 H        -5.5057234553        6.3818404271       -2.4948267293
 H        -6.3000719679        8.3981149332       -1.9709371012
 H        -6.9612699199        7.1327204855       -0.8402282362
 H       -10.4748233366        5.7866244966       -4.3782300441
 H       -11.0985977830        7.3729736478       -4.9135360539
 H       -10.9642364656        7.0200288224       -3.2242577491
 H       -10.8803696257        9.2489160004       -2.9638924968
 H       -10.2482304827       10.0457210529       -4.4339730017
 H        -9.7025341882       10.6324910299       -2.8440596026
 H        -6.8558510696        8.9029177579       -4.5865507317
 H        -7.3081087277       10.3480915424       -3.4417644194
 H        -7.9197149869       10.2300154290       -5.0249866655
 H        -5.8569976517        5.0403338890       -4.7071789839
 H        -5.0517145035        3.4497879026       -4.7751751356
 H        -4.5425945510        4.5730500196       -3.5642760981
 H        -7.8912621828        3.3690052546       -4.8251737401
 H        -8.3891403188        2.8165909726       -3.3008207379
 H        -7.0455475070        2.0676280557       -4.0481709701
 H        -5.5442265502        5.3900290229        3.4779701060
 H        -5.4260678595        5.2495449740        1.7275096962
 H        -5.0647309361        3.8843026798        2.6854538615
 H        -7.6848648335        4.0274669099        4.5944662802
 H        -6.7134357680        2.5642317548        3.9028404573
 H        -8.5530229643        2.8794272272        3.7216541306
 H       -15.1891045298        5.7550624970        1.5245474991
 H       -13.7871703750        5.0094169954        0.6516949126
 H       -14.0512828281        6.6307719918        0.5503322725
 H       -13.1532752711        7.4519288438        4.1706878364
 H       -14.6550884456        7.4146878910        3.3959836712
 H       -13.2033035138        8.2171173744        2.5244936161
 H       -13.3386202108       -0.3505355788        4.4885328712
 H       -12.1899344660       -0.0322816330        6.0017070876
 H       -12.2337710746       -1.5334675556        5.0162421472
 H        -9.5037954015       -0.8420802147        4.4088173237
 H        -9.7751819157        0.4116648897        5.5240721190
 H        -9.3200354075        0.8624879040        3.9340255340
 H       -11.8391947326        0.9949340040       -1.8430359055
 H       -12.9047225678       -0.2345846481       -1.3008784642
 H       -12.7951192522        0.0448026133       -3.0631325620
 H       -12.1816925110       -2.8226749621       -1.5670794161
 H       -10.9026267402       -3.1177272306       -2.6271940575
 H       -12.4405042507       -2.4226309709       -3.2526466793
 Na       -9.3774021613        6.0923034519       -0.0535639682
