117

 C        -8.7789738567       -1.6642215504       -3.3671712972
 C        -9.9942942242       -0.7712475343       -3.2936660699
 O       -10.2469213099        0.0814405703       -4.1439005395
 C       -11.0017151906       -1.0602653280       -2.1324316030
 C       -10.3392370121       -0.8548635133       -0.7157053561
 O        -9.4466615661       -0.0632950152       -0.5350887907
 C       -10.7754885432       -1.8258000866        0.4069013861
 C       -10.3095488575       -1.3427391620        1.8497455373
 C       -11.5257873290       -0.7535782529        2.5929677217
 O       -12.6653189877       -0.9298461989        2.3213287390
 C       -11.3696477455        0.1643244160        3.9382805597
 C       -11.8171653124        1.5557565612        3.4544858628
 O       -11.0201213569        2.2592582436        2.7769577643
 C       -13.1220252145        2.1876328518        3.7672408869
 C       -13.5340500977        3.4714655789        2.9028885011
 C       -13.2823545083        4.9021272860        3.5381257897
 O       -13.1662622115        5.1624861309        4.7120728000
 C       -13.1968125501        6.0727394097        2.4182601048
 C       -11.7151236756        6.0346278892        1.9538585966
 O       -11.4728189148        5.7286076169        0.8431482696
 C       -10.5177740510        6.4491028266        2.8733928284
 C        -9.5352171477        5.2678537948        3.1668444894
 C        -8.1927701856        5.4055593255        2.4671655108
 O        -7.8468745514        6.3854260072        1.8689323475
 C        -7.2703690500        4.1853299120        2.5177202032
 C        -7.4518127062        3.5370686309        1.0548910854
 O        -8.2474386532        3.9905194005        0.3112371813
 C        -6.5838633801        2.2671138265        0.5532064232
 C        -6.7937746623        2.2010810511       -0.9737141757
 C        -6.0325463645        3.3418784657       -1.7528614591
 O        -4.9488470205        3.7461292020       -1.3816528084
 C        -6.6012825197        3.9062994132       -3.0839810453
 C        -7.3225585140        5.1322467892       -2.5520977550
 O        -8.4237646553        5.0636166200       -1.9824747059
 C        -6.6199094607        6.4801847560       -2.8156416686
 C        -6.9262294827        7.7555197237       -1.9220120938
 C        -8.3458693628        8.2013681088       -2.1888781961
 O        -9.2117704889        7.9789675094       -1.3479538300
 C        -8.7838620760        8.8473610224       -3.5281538401
 C        -9.1325238934        7.5937774967       -4.4770158789
 O        -8.3389787373        7.1644225393       -5.2602159348
 C       -10.5016729612        6.9641421008       -4.3233669726
 C        -9.9516513399        9.7769280384       -3.5405941022
 C        -7.5501507752        9.5655746211       -4.2773371514
 C        -5.4923885503        4.1894304154       -4.1675498359
 C        -7.5869129177        2.9455875237       -3.8090827336
 C        -5.8277910574        4.6755106478        2.5508351381
 C        -7.4711367163        3.3074306879        3.7995969750
 C       -14.1909221451        5.9238449718        1.2262222381
 C       -13.5674014261        7.3970465143        3.1530573945
 C       -12.3418330099       -0.4810356873        4.9974410054
 C        -9.9253918795        0.1583030780        4.5454722851
 C       -12.1075192840        0.0329831610       -2.1908678004
 C       -11.6418717750       -2.4241689386       -2.4267141450
 H        -7.8476822376       -1.2471467119       -2.9327067688
 H        -8.6108000623       -2.0162167481       -4.3864804458
 H        -9.0306917536       -2.5135809544       -2.7662478614
 H       -10.2401650074       -2.7712776174        0.1384655873
 H       -11.7991322105       -2.0009578521        0.3855080650
 H        -9.4763303053       -0.7239877226        1.7108575727
 H       -10.0407395692       -2.2012708668        2.4357069016
 H       -13.2491464056        2.4408568915        4.7912689840
 H       -13.9894440021        1.4817696818        3.6360418794
 H       -14.6203304595        3.4205326733        2.7509302486
 H       -12.9901207096        3.3545788117        1.8598310218
 H       -10.9261711558        6.7564783946        3.8254043668
 H        -9.9346782367        7.1914118664        2.3078737999
 H        -9.8716139017        4.2544738159        2.7896547741
 H        -9.2971554303        5.2290893247        4.2901690918
 H        -7.0880361597        1.4085080796        0.9927273437
 H        -5.5018755091        2.3702389171        0.8115045022
 H        -7.8615165835        2.2471627997       -1.2122055453
 H        -6.4931378171        1.2512878256       -1.3420770641
 H        -6.8782211204        6.6431073956       -3.8851786145
 H        -5.5400429949        6.3629450006       -2.7415735863
 H        -6.2133857270        8.5810784981       -2.2220563173
 H        -6.7638642715        7.4268266588       -0.9113236354
 H       -10.3776977010        5.9323029745       -4.4495878902
 H       -11.2388413091        7.3912060380       -5.0308300034
 H       -10.9043807863        7.0706330590       -3.3163196360
 H       -10.6884560113        9.3610423609       -2.8956900268
 H       -10.3074257607        9.8848818774       -4.5417665354
 H        -9.6524616055       10.7382817059       -3.1799813287
 H        -6.8648850353        8.7554603132       -4.5227400367
 H        -7.1655239251       10.4497511015       -3.7312678126
 H        -7.8414634832        9.9218877158       -5.2775781863
 H        -5.9452731963        4.8891556138       -4.8608028003
 H        -5.1635581578        3.3120484108       -4.7267846588
 H        -4.6384384520        4.5762014631       -3.5804392029
 H        -7.9203409364        3.4604386322       -4.7264156923
 H        -8.5060616326        2.8518507021       -3.2650650853
 H        -7.0995877519        1.9596526105       -4.0060157169
 H        -5.5381005301        5.3942870153        3.3373914027
 H        -5.5553900569        5.1074573398        1.5730966396
 H        -5.0879807989        3.8256677768        2.6601157401
 H        -7.1324027363        3.9654632146        4.6388445483
 H        -6.8715562888        2.4326609735        3.6187045326
 H        -8.5202164759        3.1688603404        4.0419806341
 H       -15.2011496761        5.8558004880        1.6587467599
 H       -13.9421032030        5.1718243575        0.4865470948
 H       -14.2448264932        6.8431439142        0.6188346868
 H       -13.1503207185        7.4255659430        4.1586407837
 H       -14.6429126746        7.2888428517        3.4205924915
 H       -13.3752209305        8.2374921237        2.6113902939
 H       -13.3588285112       -0.4198318808        4.6521803204
 H       -12.0500796205       -0.0202305135        5.9226523226
 H       -12.1038897065       -1.4842091775        5.0722611717
 H        -9.6724587828       -0.8769853640        4.7803322482
 H        -9.7856953901        0.7887369622        5.4044045613
 H        -9.2609167894        0.6139501992        3.8305406612
 H       -11.6732598570        1.0435170466       -2.0685062872
 H       -12.8120699505       -0.0726685275       -1.3383874550
 H       -12.6466671369        0.0010671012       -3.1198815202
 H       -12.4365064332       -2.5477012806       -1.6669884272
 H       -11.0625371643       -3.3389139746       -2.3918789332
 H       -12.1494591292       -2.2746833960       -3.3859525847
 Na       -9.3859313783        6.0481638026       -0.0433184420
