117

 C        -8.4945295242       -2.0220873864       -2.8328175792
 C        -9.6387518859       -0.9649630466       -2.9927629381
 O        -9.5454274245       -0.1821793638       -3.9075559644
 C       -10.8444178793       -1.0057476743       -1.9800405373
 C       -10.2911725908       -0.6984738588       -0.5695863769
 O        -9.3359077746        0.0692632220       -0.5490536815
 C       -10.7530772982       -1.4684505720        0.6079597495
 C       -10.4604036043       -0.6612018953        1.9581274786
 C       -11.6941623539       -0.5268320214        2.8374962911
 O       -12.7569032313       -1.1245718725        2.5962513920
 C       -11.5808841483        0.4429327098        4.1172338879
 C       -12.0488437887        1.8590540329        3.3947457310
 O       -11.2750763264        2.4898706572        2.7459995461
 C       -13.4848775855        2.2517373214        3.5439659752
 C       -13.8264939275        3.5490127271        2.8043064685
 C       -13.1498980954        4.7756014759        3.3892356813
 O       -12.7665960469        4.8246247027        4.5242819555
 C       -13.0124535349        6.1038622551        2.4531446947
 C       -11.5317676439        6.0364246746        2.0282691011
 O       -11.2032612963        5.8716833522        0.8378006666
 C       -10.4628812781        6.1685912784        3.1296231815
 C        -9.4740197171        5.0827165318        3.1870633975
 C        -8.1969358316        5.2892163017        2.4653670363
 O        -7.9620596877        6.3134348818        1.8299223350
 C        -7.1972568774        4.1115347131        2.3135127707
 C        -7.5179574174        3.2260993284        1.0647638296
 O        -8.5862674789        3.5133823425        0.5023189290
 C        -6.7222345678        1.9534980537        0.5791367140
 C        -6.7370150978        1.9195526177       -0.9759952620
 C        -6.2577963390        3.2041497028       -1.7426995824
 O        -5.3880314194        3.8774559850       -1.2523707696
 C        -6.9983733077        3.7477300369       -3.0545635014
 C        -7.3813596310        5.2284081599       -2.6480517551
 O        -8.5323363881        5.3410223615       -2.2688310110
 C        -6.4081715697        6.3838478014       -2.8445592971
 C        -6.8389045511        7.6304848497       -2.1167299595
 C        -8.3231276434        8.1566347404       -2.4107001344
 O        -9.3217632551        7.8986984632       -1.7235561125
 C        -8.5516384170        8.8830860238       -3.8381585739
 C        -9.2107503378        7.7393333443       -4.7916142122
 O        -8.3992684334        7.1290411097       -5.4534194845
 C       -10.6950437800        7.4588687884       -4.7310577467
 C        -9.6654834448       10.0436570122       -3.5910420609
 C        -7.2649820210        9.3886648869       -4.4029025526
 C        -5.9640111697        3.5379796539       -4.1709049199
 C        -8.2602372305        2.9010461337       -3.3031440286
 C        -5.7472211733        4.6115804085        2.0786881684
 C        -7.2280431370        3.2566679535        3.6606722112
 C       -13.9906922789        6.0412767453        1.2266354623
 C       -13.2876938622        7.3206365906        3.3665895978
 C       -12.6032665465        0.0262281437        5.2825473559
 C       -10.1187502483        0.5040332417        4.6596570849
 C       -11.7953313415        0.0884266220       -2.3182996043
 C       -11.5918008358       -2.3583180748       -2.2178810075
 H        -8.4145211810       -2.5662596891       -3.7602791469
 H        -8.7261178747       -2.6933003471       -1.9972004709
 H        -7.4813844227       -1.6387574761       -2.6264386624
 H       -10.1171467354       -2.3592806491        0.5979693181
 H       -11.7792149041       -1.7988807305        0.6013293210
 H       -10.2009182217        0.3370131445        1.6940876946
 H        -9.7077882046       -1.1311882167        2.5029707414
 H       -13.6938271501        2.5041361064        4.6186295154
 H       -14.2051190750        1.4848803650        3.3591226294
 H       -14.9514225698        3.7665144012        2.8863366960
 H       -13.6603563937        3.4261057149        1.7209444120
 H       -10.8563494773        6.2144789609        4.1087419265
 H        -9.9302888534        7.1430166408        2.9442470334
 H        -9.9403712321        4.0615225152        2.8721884481
 H        -9.2293670317        5.0201396287        4.2662533998
 H        -7.3562990194        1.1079125424        0.8853943483
 H        -5.6916844083        2.0409915829        0.9551078518
 H        -7.7165904541        1.6673973407       -1.3246521343
 H        -6.1291070366        1.0712430033       -1.2658592928
 H        -6.3246473914        6.6116174218       -3.9209473417
 H        -5.4604076675        6.0809832957       -2.4300260822
 H        -6.1625494884        8.4368826163       -2.3383596501
 H        -6.7264994133        7.4575314068       -1.0047196175
 H       -10.9276226468        6.6627251431       -5.4604876354
 H       -11.3257879768        8.3320552375       -4.9273132590
 H       -10.9017570698        7.1236379461       -3.7396955373
 H       -10.5632247172        9.5934926874       -3.1900697325
 H        -9.8602077510       10.7116375320       -4.4497691564
 H        -9.3104147042       10.6840575546       -2.8054236132
 H        -6.6192544653        8.6169208658       -4.8399845030
 H        -6.6915740895        9.8291409200       -3.5988213028
 H        -7.5702981958       10.0938060069       -5.2104166050
 H        -6.3320167388        3.9714351502       -5.0836845761
 H        -6.0220329056        2.4571704263       -4.3414718412
 H        -4.9682380208        3.9159511534       -3.9471546371
 H        -8.7291786083        3.3664333715       -4.1384866902
 H        -8.9501818069        2.8851435604       -2.4373471429
 H        -8.0191813588        1.8860906119       -3.5712286872
 H        -5.2694397925        4.9422627668        3.0108855639
 H        -5.6379379993        5.3509995815        1.2661598930
 H        -5.0524222331        3.8146188710        1.8184040355
 H        -7.2686947601        3.9116266042        4.5049930474
 H        -6.3449025053        2.5666943548        3.5627966608
 H        -8.0926552318        2.5686748752        3.5313020238
 H       -15.0386086483        6.0095888560        1.4260406594
 H       -13.7913936898        5.1544516092        0.6088395355
 H       -13.8822310038        6.9298497503        0.6110163887
 H       -12.9772250931        7.0399203067        4.3594672222
 H       -14.2864883814        7.6208170615        3.3299017540
 H       -12.7339063920        8.2104747819        2.9595832390
 H       -13.5569653130       -0.0067837855        4.8306465015
 H       -12.5366058221        0.7155816642        6.0750532763
 H       -12.2665851353       -0.9809240059        5.6581103468
 H        -9.6246514488       -0.4843977311        4.5822051200
 H       -10.1549797546        0.7760730995        5.7008770551
 H        -9.5097550823        1.1408161895        4.0345705752
 H       -11.3242734260        1.0594464810       -2.3657820745
 H       -12.6219287212        0.0243774566       -1.6215816590
 H       -12.1762158711        0.0074186658       -3.3482975446
 H       -12.2239430719       -2.6214469481       -1.3622532063
 H       -10.7992438572       -3.0936660844       -2.3446217121
 H       -12.1381207249       -2.3234398850       -3.1348609011
 Na       -9.2299769903        6.1214011068       -0.1687765800
