117

 C        -8.4592527661       -2.0777733697       -2.7157740590
 C        -9.5676979899       -1.0117879481       -2.9894706005
 O        -9.3992892266       -0.1513105999       -3.8484442757
 C       -10.7940338739       -1.0195847343       -2.0627801071
 C       -10.2273865483       -0.8235780957       -0.5639961273
 O        -9.3250793308        0.0399799378       -0.4443980238
 C       -10.8596734992       -1.3471414342        0.7227513421
 C       -10.4331515812       -0.5052828214        1.9508316085
 C       -11.6016919135       -0.4756337033        2.9349014370
 O       -12.6437394866       -1.0294362964        2.6821632154
 C       -11.6307868239        0.5010539851        4.1331871291
 C       -12.1423835368        1.8456609799        3.4737480021
 O       -11.2299735704        2.4051645409        2.8626327459
 C       -13.6421764347        2.2228646196        3.4959798493
 C       -13.9516740629        3.5651363188        2.7622401507
 C       -13.2264818438        4.7811423319        3.3506716976
 O       -12.6543528688        4.7319742752        4.4027151936
 C       -12.9826543837        6.0783863306        2.5187838740
 C       -11.4922050971        6.1275712797        2.0844632384
 O       -11.1812106581        5.9689902055        0.9069313387
 C       -10.5312780563        6.2795601159        3.2229773889
 C        -9.5040435422        5.0140189418        3.2151057277
 C        -8.1919053895        5.2518139063        2.3370773041
 O        -8.0182055555        6.3030264749        1.7686076869
 C        -7.1449663515        4.0228410464        2.2834517793
 C        -7.6165865991        3.2291607136        1.0319870333
 O        -8.4766237453        3.7102997210        0.3050558563
 C        -6.8050985270        2.0082941338        0.5634429023
 C        -6.7373251752        1.8652099960       -0.9711106245
 C        -6.3582843228        3.1497129528       -1.6078203998
 O        -5.4389441189        3.9194460445       -1.2317208370
 C        -7.1047435606        3.6042386758       -3.0164132012
 C        -7.5046340952        5.1313146893       -2.7054321971
 O        -8.6022597171        5.3787500554       -2.2866976586
 C        -6.5374935107        6.2592839095       -2.8970523470
 C        -6.9707508505        7.5611627928       -2.1793944939
 C        -8.3629193217        8.0103210565       -2.5022186493
 O        -9.2219319203        7.9625943671       -1.6572834504
 C        -8.5218951472        8.8455455347       -3.8227103559
 C        -9.1733849331        7.7889231587       -4.8512228108
 O        -8.4340830043        7.0837683243       -5.4746679893
 C       -10.6462628203        7.5458156374       -4.8468668269
 C        -9.4591880725       10.0402918565       -3.5486125825
 C        -7.2513588021        9.3905298850       -4.4087303823
 C        -6.0606119298        3.6198897761       -4.1592198776
 C        -8.3329350089        2.7898642761       -3.3316046124
 C        -5.6849628044        4.5186338089        1.9288692735
 C        -7.1055101824        3.2381631581        3.7269829050
 C       -13.8353506377        6.1318742769        1.2131940382
 C       -13.3102597509        7.3178424691        3.3812624907
 C       -12.6079465085       -0.0066412237        5.2672846607
 C       -10.2481977369        0.6123832272        4.7326307015
 C       -11.7560003615        0.1781248096       -2.4503873891
 C       -11.5902217147       -2.4344085868       -2.1530908050
 H        -8.6119661703       -2.9671688697       -3.2051943855
 H        -8.4658636593       -2.2254399825       -1.6547683908
 H        -7.4265549124       -1.7576679344       -2.9447120945
 H       -10.6925995580       -2.3763201832        1.0003106672
 H       -12.0238509230       -1.2129014453        0.6598871240
 H       -10.1674379136        0.5392465143        1.6535234754
 H        -9.5876231210       -1.0242552957        2.4514276704
 H       -14.1376726802        2.2938506936        4.5104507847
 H       -14.2389770209        1.4716745689        3.0002725829
 H       -15.0765459566        3.6875428179        2.7989409299
 H       -13.7758671465        3.4658628394        1.7469568848
 H       -11.0447825709        6.3480228910        4.1821047254
 H        -9.8912757896        7.1355494787        3.1350667400
 H       -10.0101071269        4.1566609856        2.7330694643
 H        -9.3045742613        4.7613210826        4.2674671715
 H        -7.4083840367        1.1080938305        0.9048201643
 H        -5.7929640587        2.1606255358        0.9562007315
 H        -7.6108407866        1.4634185638       -1.4816178904
 H        -5.9110822655        1.1346507328       -1.1542954957
 H        -6.5879235482        6.4332407915       -3.9454733167
 H        -5.5398235244        6.0055121356       -2.5815558269
 H        -6.2711394109        8.3829036788       -2.3092157061
 H        -7.0049188785        7.4068801006       -1.0626916256
 H       -10.8147689856        6.7157786711       -5.5840896527
 H       -11.1633733209        8.3649434144       -5.2124732652
 H       -11.0241312391        7.2993316191       -3.8464321612
 H       -10.3792478286        9.7772596778       -3.0698064130
 H        -9.6556026447       10.5634768816       -4.4403465353
 H        -8.9098735066       10.7126001303       -2.9052860094
 H        -6.5431284657        8.5448970041       -4.5726978055
 H        -6.6986274155       10.0076860651       -3.6876771050
 H        -7.5194989817        9.8674520857       -5.3213103191
 H        -6.5826890215        4.0960609226       -5.0498783147
 H        -5.8067070812        2.5945909891       -4.4520366731
 H        -5.2301116137        4.2634829511       -3.9240591026
 H        -8.7780694569        3.4503755190       -4.1625191736
 H        -9.0289600958        2.7896032166       -2.4409392501
 H        -8.2268923064        1.7576425581       -3.7276079504
 H        -5.1922777583        5.0878495272        2.7651460773
 H        -5.6966192711        5.1439577955        1.0076218955
 H        -4.9482830202        3.7403934831        1.7322383259
 H        -6.7249133140        3.8718550510        4.5509399073
 H        -6.4570278877        2.4118183495        3.4542785498
 H        -8.0495395595        2.7484068641        3.8147737380
 H       -14.9624287296        5.9776291449        1.3391017675
 H       -13.6170535310        5.3293245529        0.4923259979
 H       -13.7398482361        7.1125464268        0.7343085478
 H       -13.0903339616        7.1195499413        4.3788165104
 H       -14.2991195043        7.6522047156        3.1628849178
 H       -12.6993925045        8.1539926306        2.9973513999
 H       -13.6103464401        0.0970673901        4.9117639220
 H       -12.4864983566        0.5952267897        6.1455192304
 H       -12.3671426334       -0.9953570089        5.4396305925
 H        -9.8940840754       -0.3644780557        4.9571612247
 H       -10.3268736726        1.1429545373        5.7144767703
 H        -9.5055557135        0.9609574446        3.9643171471
 H       -11.2528204277        1.1374359515       -2.3906101712
 H       -12.6216845292        0.1038727975       -1.8231642846
 H       -12.0743255124        0.1751336761       -3.5023557207
 H       -12.2534935271       -2.4438882054       -1.3135517689
 H       -10.8319802927       -3.2499925695       -2.0984624644
 H       -12.1428647662       -2.5430039520       -3.1090246122
 Na       -9.1414449251        6.0522769367       -0.1743869890
