117

 C        -7.7084466618       12.9770536842       -2.3372691823
 C        -7.2678259444       11.5381184076       -2.7913904229
 O        -8.1240704648       10.7828623893       -3.2032154459
 C        -5.7217338140       11.2353774845       -2.7083185258
 C        -5.3033512437       10.9944858395       -1.2261322314
 O        -5.3747103089       11.8909829763       -0.4161858078
 C        -4.8592425788        9.6411807054       -0.8472612546
 C        -6.0575073932        8.6544683196       -0.4762295998
 C        -5.5867239021        7.3105212875        0.1778491159
 O        -4.9775477924        6.4682845649       -0.4681111306
 C        -5.9414068223        6.8891608498        1.6915798153
 C        -7.5229926274        6.9499261976        1.9381190084
 O        -7.9945235705        8.0497408858        2.0636673385
 C        -8.5469102415        5.8373191300        1.8714949806
 C        -9.6359887080        6.3152280429        0.8608508358
 C       -10.7031368233        5.1924874154        0.7305527636
 O       -10.5240085930        4.1081687540        1.1922224970
 C       -12.0682728845        5.5764815352       -0.0877995886
 C       -13.0005975471        4.3887457136       -0.1240277858
 O       -12.6206240555        3.3850448630       -0.7190376708
 C       -14.3837627360        4.4096219724        0.6079771484
 C       -14.8850938804        3.0076492745        0.7786727512
 C       -14.1139070038        2.0564088089        1.6609733186
 O       -13.1410984621        2.4449885857        2.2836324951
 C       -14.5550408797        0.6358633029        2.0049855147
 C       -13.5112043752       -0.3538440789        1.4234079299
 O       -12.4223583312       -0.0385279620        0.9879827500
 C       -13.7995899967       -1.8810003941        1.3921895059
 C       -12.5779754235       -2.4109418350        0.6491860199
 C       -12.8815719730       -2.6952168197       -0.9191756636
 O       -13.9825690138       -2.7122766048       -1.3842575315
 C       -11.6745609329       -3.0902610580       -1.8269549272
 C       -10.4180323081       -2.0221128054       -1.5168763129
 O        -9.9752269275       -1.9817227001       -0.4168470083
 C        -9.7159434712       -1.1215663229       -2.6319477277
 C        -8.3910102053       -0.4763240540       -2.1984040588
 C        -8.7343782559        0.5871283761       -0.9812579943
 O        -9.7185758765        1.2024162817       -1.0404164327
 C        -7.8068703487        0.5928547818        0.2603950282
 C        -8.4916607097        0.1993900959        1.6383048787
 O        -9.6036379541        0.6208628321        1.9564762890
 C        -7.5666201393       -0.4298677877        2.7262655923
 C        -6.4777510843       -0.2082469710        0.0213729021
 C        -7.4988055376        2.1101232321        0.3455692569
 C       -11.1300724379       -4.4157735443       -1.1476902518
 C       -12.1865562919       -3.2206032678       -3.3175227548
 C       -14.9280701285        0.5489057784        3.5151693767
 C       -15.8703455629        0.1472785177        1.2696689796
 C       -12.7526815862        6.9184636718        0.2664380924
 C       -11.3906056811        5.7529229556       -1.5019197614
 C        -5.4212243334        5.4427623298        1.9726187757
 C        -5.1570886689        7.7915765731        2.5791191825
 C        -5.5559357334       10.0627948859       -3.7254808800
 C        -4.9234051570       12.3546199610       -3.3285643922
 H        -7.2792376694       13.7162283941       -3.0066157031
 H        -7.1785486765       13.1795963767       -1.4437553934
 H        -8.7928507906       12.9070791590       -2.3126060986
 H        -4.1273038814        9.7804778181        0.0372823284
 H        -4.3111968304        9.1336532658       -1.6604847069
 H        -6.7392423526        8.4451182789       -1.3288455858
 H        -6.6683774159        9.0175587540        0.3463324290
 H        -9.1279472282        5.7775500364        2.8236763597
 H        -8.1189582602        4.8356600467        1.6335378333
 H        -9.0596735221        6.4255781647       -0.0918284667
 H       -10.0496762980        7.3730134402        1.0973606730
 H       -14.9788769248        4.9031577774       -0.1999442174
 H       -14.1932558245        5.1044295413        1.4003750793
 H       -15.0108926385        2.5913042813       -0.2174419714
 H       -15.9243899733        3.1190448070        1.2906794301
 H       -14.8038392073       -2.0636824631        1.0416752291
 H       -13.8552842725       -2.1755464452        2.4207239221
 H       -12.3773456108       -3.4189617234        1.1127308933
 H       -11.7899620808       -1.6263196732        0.8230051804
 H       -10.4159204750       -0.3604941652       -3.0210010323
 H        -9.5186699280       -1.9122642707       -3.3371225109
 H        -7.9376161978        0.0871704468       -3.0362392947
 H        -7.6628770276       -1.1765510276       -1.8639603565
 H        -7.3779049879       -1.4590584377        2.6240993975
 H        -8.1061051248       -0.3425711339        3.7624808147
 H        -6.6276582584        0.0509147591        2.6511029747
 H        -6.0803333939       -0.1180718387       -0.9211973365
 H        -6.5428907929       -1.2987944666        0.3593861091
 H        -5.7655850559        0.2246085355        0.7061464691
 H        -8.4652390494        2.6135775911        0.4777204421
 H        -6.9435193955        2.4361980655       -0.5321829656
 H        -6.9005726823        2.3271777763        1.1606174962
 H       -11.8660574970       -4.9718591881       -0.5493379970
 H       -10.3610543716       -4.2119105196       -0.4390648548
 H       -10.5892432331       -5.2225744439       -1.7663318913
 H       -11.8484653067       -2.3425816694       -3.8380725021
 H       -13.2872924340       -3.2364831057       -3.4392080836
 H       -11.7638207331       -4.1649562359       -3.7602563744
 H       -15.6797489821        1.3264119285        3.7343385020
 H       -14.0912375325        0.6920532278        4.1954295901
 H       -15.4706244743       -0.3437575753        3.7770156022
 H       -16.7292090602        0.7653852505        1.3563573918
 H       -16.1105652787       -0.7386224175        1.7570384179
 H       -15.8661133915        0.0644546905        0.1479882968
 H       -13.3941072413        7.2271967353       -0.6396739802
 H       -12.0482479237        7.7601524805        0.3769250358
 H       -13.3115239734        6.8000152444        1.1179121966
 H       -10.7620500458        4.9044950411       -1.7215489720
 H       -10.6135509732        6.4979912168       -1.3927856079
 H       -12.1215245588        5.9112473470       -2.2442319458
 H        -4.3558297851        5.5299413433        1.9869068166
 H        -5.6367768418        4.7708461525        1.1418535166
 H        -5.7664271654        5.0270111414        2.9070259130
 H        -5.3820099732        8.8285188301        2.4003626486
 H        -4.0627707056        7.7789793615        2.5349126554
 H        -5.3649868777        7.6107397085        3.6090640457
 H        -6.1058017257        9.1637897674       -3.3840304829
 H        -4.5474570876        9.8065745714       -3.9883058222
 H        -6.0734852770       10.4862425162       -4.6322455010
 H        -4.8594090562       13.1641993474       -2.6235584143
 H        -5.2951532388       12.6649800957       -4.2859192820
 H        -3.9574695417       11.9477257715       -3.5310644476
 Na      -11.2284811154        1.9606892788        0.7121120937
