117

 C        -8.3368675021       -2.2408884782       -2.5458046213
 C        -9.3282723797       -1.1271674555       -2.8320782914
 O        -9.1933045374       -0.2753652722       -3.6715597800
 C       -10.6766527691       -1.0254864486       -1.9612985742
 C       -10.1556349288       -0.6078011467       -0.5485878196
 O        -9.1229605983       -0.0270567931       -0.4002092582
 C       -11.1179033495       -0.9536738402        0.5999429207
 C       -10.6883973829       -0.3870843311        1.9634187250
 C       -11.7641542798       -0.4260301794        3.0299584020
 O       -12.7633770487       -1.1406825489        2.8734441970
 C       -11.7254614381        0.5808590953        4.2110408547
 C       -12.1915099930        1.9074269081        3.4922233144
 O       -11.3538988302        2.6139419941        2.9691845228
 C       -13.6933390753        2.2059057514        3.4484744692
 C       -13.9088766157        3.5387498237        2.6567087699
 C       -13.0994021671        4.6822312709        3.2439239694
 O       -12.5907718191        4.5785925761        4.3427553342
 C       -12.9582426129        6.0936731140        2.5320249294
 C       -11.4073800588        6.1786627032        2.1361216733
 O       -11.0629658674        6.1971124637        0.9598442431
 C       -10.3325257833        6.2601503109        3.2361575277
 C        -9.4370774387        5.0558761637        3.3063701511
 C        -8.2017943408        5.2725985625        2.4255377655
 O        -7.9278898280        6.3196628782        1.8060337894
 C        -7.1470973027        4.0351334619        2.1575668515
 C        -7.5102451568        3.3271216621        0.8363060331
 O        -8.2362051099        3.8688795314        0.0107972411
 C        -7.0138493913        1.9214233766        0.5758623430
 C        -6.8483152405        1.7757544310       -0.9494821476
 C        -6.4639935547        3.1518911196       -1.7091287142
 O        -5.6408680127        3.8511673927       -1.1894941932
 C        -7.2012218507        3.4975173853       -2.9946043198
 C        -7.7770507527        4.9642127919       -2.7539866370
 O        -8.9537726886        5.1559377006       -2.4221762308
 C        -6.8297583413        6.1212543853       -2.9738755243
 C        -6.9772168024        7.3584320933       -2.0551646191
 C        -8.2115893738        8.0803157462       -2.4358008867
 O        -9.1523956566        8.0355649723       -1.6346599791
 C        -8.4300821036        8.8250577351       -3.7975350758
 C        -9.0821957491        7.8437518677       -4.8252594805
 O        -8.4147790597        7.0464969084       -5.4674345884
 C       -10.5898051526        7.8344981468       -5.0244911548
 C        -9.3919034538       10.0144525009       -3.5827673660
 C        -7.1077015304        9.2430562846       -4.4881054477
 C        -6.1782400385        3.4413517743       -4.2019246335
 C        -8.4159089627        2.6085415800       -3.3594648165
 C        -5.7543944262        4.7697717249        1.7992082735
 C        -6.9833816962        2.9825843033        3.3769710020
 C       -13.7230925833        6.2001051655        1.2632848904
 C       -13.4277355262        7.2310494994        3.4591621510
 C       -12.7092230373       -0.0435139985        5.2741446902
 C       -10.3722425423        0.9234966294        4.9460647179
 C       -11.5991511629        0.1067544987       -2.4934194046
 C       -11.4527631838       -2.3495305793       -1.9790302705
 H        -8.8427543935       -3.1482090832       -2.1198629854
 H        -7.4207984927       -1.9624045603       -2.0194590136
 H        -8.0023595594       -2.5392163784       -3.5295879688
 H       -11.0505125168       -2.0751982492        0.7418922185
 H       -12.1182006414       -0.7631306626        0.3856062131
 H       -10.4105777789        0.6778265869        1.7954428274
 H        -9.8003407631       -0.9556230619        2.3314108153
 H       -14.1202580143        2.3190641494        4.4202633391
 H       -14.3471065507        1.4471767660        2.9618598590
 H       -14.9297012363        3.7481566525        2.4554074954
 H       -13.5184169686        3.3316105965        1.6130272105
 H       -10.7502061204        6.4463865632        4.2318159255
 H        -9.5702956835        7.0928288482        3.1243263698
 H        -9.9463829874        4.1170653937        3.0725459194
 H        -9.0523013454        4.9525338872        4.2988344696
 H        -7.7838945075        1.2593408000        0.8540395430
 H        -6.0610662865        1.8969014527        1.1061915724
 H        -7.7017107891        1.2465696305       -1.4058971191
 H        -5.9897627881        1.1099865674       -1.0734778136
 H        -6.9276131738        6.5196957259       -4.0252471119
 H        -5.7883380480        5.8250021222       -2.7858523646
 H        -6.1028522034        7.9690684722       -2.3197228409
 H        -6.8965115900        7.2305829797       -0.9984221792
 H       -10.8358635218        6.9468392690       -5.5765912744
 H       -11.0304375357        8.6608136559       -5.6735340357
 H       -11.0684187889        7.8498655602       -4.0650358285
 H       -10.2552560783        9.6348726882       -3.0258968750
 H        -9.8502193982       10.3134888956       -4.5616831417
 H        -8.9524113755       10.8536583999       -3.0595613649
 H        -6.3661393542        8.4946625581       -4.5540972003
 H        -6.6317702242       10.0155442827       -3.9167275260
 H        -7.4182263416        9.7216041236       -5.4484417525
 H        -6.6154604190        3.9870661960       -4.9964860975
 H        -6.0052403671        2.3898101376       -4.4606176540
 H        -5.2327846473        3.9903536660       -3.9729176067
 H        -8.8413439735        2.8930878179       -4.2870908522
 H        -9.1122879118        2.6526078792       -2.5217297529
 H        -8.1224942227        1.5575034451       -3.4323540923
 H        -5.6104145299        5.7316680512        2.2692963315
 H        -5.6692483296        4.9655239868        0.7399205064
 H        -4.8654852340        4.1740072835        2.0354448598
 H        -6.3660244494        3.5925924551        3.9839819137
 H        -6.4831753929        2.0264661671        3.2431916485
 H        -7.9733694259        2.7887034988        3.7969112259
 H       -14.7434204100        5.9344240256        1.3434266224
 H       -13.4299528462        5.4584821572        0.5021090983
 H       -13.6350088240        7.2183363256        0.8382182021
 H       -12.8492876235        7.0761507380        4.4141166301
 H       -14.5160307352        7.1408167150        3.5302767803
 H       -13.1885383798        8.2311064463        3.0654019644
 H       -13.6996500635       -0.2832385539        4.8491676333
 H       -12.8825509697        0.7473897679        6.0105544826
 H       -12.1941249881       -1.0190653706        5.6435265364
 H       -10.0892826399        0.1921275065        5.7602706869
 H       -10.5239915199        1.8444276186        5.4460203664
 H        -9.5940104250        0.8617923009        4.2365868155
 H       -11.0654089442        1.0620891496       -2.4149203464
 H       -12.5749969975        0.1252301675       -1.9788131751
 H       -11.7986217201       -0.0249328755       -3.5523060271
 H       -12.5032992247       -2.1441350079       -1.6659450225
 H       -10.9008588575       -3.0186408933       -1.3342661639
 H       -11.4569409125       -2.7471756715       -2.9758314348
 Na       -9.1426107831        6.1191042396       -0.2068181644
