117

 C        -8.3584721550       -2.3113666383       -2.5071200152
 C        -9.3043349840       -1.2037749681       -2.8319066070
 O        -9.0046738084       -0.3735614146       -3.6958156074
 C       -10.5941760627       -0.9899252262       -1.9368540189
 C       -10.1864270732       -0.6266800965       -0.4510574226
 O        -9.0831925179       -0.0647175479       -0.2956467802
 C       -11.1883533379       -0.7956196258        0.6253985603
 C       -10.6818367673       -0.2946564117        1.9901449820
 C       -11.8113409781       -0.4502180545        3.0306506673
 O       -12.7798998753       -1.2000668581        2.9678029323
 C       -11.8330982013        0.6349205650        4.2292786622
 C       -12.2865070798        1.9351257498        3.5495508802
 O       -11.4109040671        2.5494748681        3.0011231182
 C       -13.7177651479        2.2927593672        3.3971390382
 C       -13.8035559910        3.5769298999        2.5723064229
 C       -13.0473360601        4.7018102375        3.2937502905
 O       -12.6011047093        4.5968560635        4.4027829356
 C       -12.8608931034        6.0463679021        2.4896085142
 C       -11.3826238910        6.2443409619        2.1436638871
 O       -11.0800790590        6.2509066745        0.9523418569
 C       -10.3593627579        6.3077862396        3.3010348396
 C        -9.2961924376        5.1403244204        3.3296265178
 C        -8.1396585230        5.2461981263        2.4174309051
 O        -7.9798662537        6.3402941223        1.9244940408
 C        -7.0713884038        4.1463319321        2.1575265031
 C        -7.5263545120        3.3215291785        0.8092409297
 O        -8.1749358634        3.9558543992        0.0025080052
 C        -7.0078876363        1.8880097373        0.4225630205
 C        -6.8331474439        1.6980068772       -1.0376603312
 C        -6.5588828373        3.0605116046       -1.7208770625
 O        -5.6946685508        3.8243925180       -1.2885510715
 C        -7.3015430323        3.4510988043       -3.0452632056
 C        -7.8432957795        4.8786225609       -2.7742392267
 O        -9.0024795034        5.0520246062       -2.4885966251
 C        -6.7736219730        6.0496027728       -2.9883671186
 C        -6.9176642655        7.3330988837       -2.1364380146
 C        -8.2763860512        8.1020211154       -2.4215505904
 O        -9.1898235776        8.0598968086       -1.6156576662
 C        -8.4302768200        8.8682257638       -3.7866204195
 C        -9.0832596217        7.7604129909       -4.8075019549
 O        -8.3712365120        7.0157297544       -5.4071218810
 C       -10.6080240516        7.9292326395       -5.0680878652
 C        -9.3218719528       10.0769660750       -3.6232310655
 C        -7.0340467153        9.2561498423       -4.4134278068
 C        -6.2566056728        3.3055547944       -4.1781359321
 C        -8.4709696246        2.4774331175       -3.3968285067
 C        -5.7345334153        4.7947335298        1.7882204478
 C        -7.0279090013        3.0607004659        3.2184957501
 C       -13.7479293659        6.1355988688        1.2103021621
 C       -13.3431316318        7.0779178607        3.5643622184
 C       -12.7913695099        0.1826973348        5.3786748598
 C       -10.4583098770        0.8800019158        4.8558336277
 C       -11.4843070799        0.1105021895       -2.5363953028
 C       -11.3773806409       -2.3989382535       -1.9081152603
 H        -8.5952653694       -2.8797108089       -1.6460615250
 H        -7.3419185500       -1.8066842799       -2.4349610378
 H        -8.2174031154       -3.0220925711       -3.4037561825
 H       -11.5111927028       -1.7991485787        0.6981313112
 H       -12.0626550322       -0.2530926235        0.3246850446
 H       -10.4745608323        0.7488701010        1.8932667167
 H        -9.8148449871       -0.7638150951        2.3140152760
 H       -14.1649420651        2.5998931491        4.3881326757
 H       -14.3700609972        1.5463386003        3.0207512560
 H       -14.9274973881        3.8669674599        2.4797068122
 H       -13.5139450251        3.4047900954        1.5383897947
 H       -10.8454874261        6.2251204265        4.2621449203
 H        -9.7943551219        7.2752738116        3.3797158484
 H        -9.9815460908        4.2159048593        3.2051118889
 H        -8.8616330432        5.0452286400        4.3341146744
 H        -7.7640613512        1.1823267783        0.7293903329
 H        -6.0718860001        1.8916272282        0.9350892804
 H        -7.7561141043        1.3601930783       -1.4274899584
 H        -6.1019539459        0.9322872620       -1.2647022937
 H        -6.8657012869        6.3893867813       -4.0619039635
 H        -5.7335193358        5.7385748561       -2.7963725831
 H        -6.0460606723        7.9138450599       -2.2943644192
 H        -6.8617840696        7.1367754679       -1.0287259303
 H       -11.0759193312        7.0858276760       -5.6678654726
 H       -10.7755889623        8.7740599616       -5.6978189620
 H       -11.1073148981        8.1073231933       -4.1352202550
 H       -10.2195087887        9.6478758490       -3.1265102605
 H        -9.7432918201       10.4695164733       -4.5745510857
 H        -8.8859989882       10.8596318625       -2.9695140398
 H        -6.3486110870        8.4374457146       -4.6237636684
 H        -6.4744686038        9.9299218117       -3.7741611112
 H        -7.3231118543        9.8749091040       -5.2558539700
 H        -6.4522085817        3.8971150331       -5.0543210328
 H        -6.1840312631        2.2357746642       -4.3433519051
 H        -5.3106690677        3.6480215550       -3.8220955782
 H        -8.9441331724        2.6424863034       -4.3124345839
 H        -9.1184285939        2.5045408430       -2.5679258280
 H        -8.1172295664        1.5167702055       -3.4346792427
 H        -5.6784354219        5.7041401302        2.3885833824
 H        -5.5863816616        5.1714720030        0.7856883332
 H        -4.8843117941        4.2116536208        2.0379848333
 H        -6.5971649708        3.4075159746        4.1391895248
 H        -6.3160232637        2.2368717467        2.9127485837
 H        -8.0514422101        2.6550914663        3.2567774189
 H       -14.7608279311        5.9230876427        1.4249315449
 H       -13.6031508191        5.3754673315        0.4733835637
 H       -13.6396130702        7.0693168122        0.7149798792
 H       -12.6936984516        7.1257566220        4.4325606551
 H       -14.3280844483        6.7041851553        3.7502240461
 H       -13.4607096590        8.1493446478        3.1106328119
 H       -13.7436623462       -0.1574053866        4.9046801592
 H       -13.0847223314        1.0855801880        5.9368197133
 H       -12.3295524519       -0.6791652306        5.9288562413
 H       -10.2190676943        0.1165508297        5.5600149687
 H       -10.5651560225        1.7627398477        5.4395852530
 H        -9.6838514054        0.8816681714        4.1185735617
 H       -11.0716071375        1.1229558714       -2.6199088233
 H       -12.4125002855        0.1253641332       -1.9702697558
 H       -11.8081754317       -0.2513653743       -3.5454958335
 H       -12.4016716050       -2.2063351899       -1.6706184896
 H       -10.8492595118       -3.0038898836       -1.1833959063
 H       -11.3384393265       -2.8746682044       -2.8656502454
 Na       -9.1832053391        6.2297365425       -0.2670016171
