117

 C        -8.2052408757       -2.7695502838       -1.5465256533
 C        -9.0596707017       -1.7560111750       -2.2594642045
 O        -8.7226411129       -1.1383843529       -3.2671659942
 C       -10.4498091272       -1.3685706213       -1.6224579956
 C       -10.1530566392       -0.8607721142       -0.2370550104
 O        -9.0078133931       -0.8227088670        0.1224776320
 C       -11.2891151572       -0.5849947112        0.7528940448
 C       -10.7994364711       -0.7001034119        2.2163844182
 C       -11.9648353354       -0.6515931811        3.1308314829
 O       -12.9062515577       -1.4274861614        3.0116878324
 C       -12.0426493889        0.5649151678        4.1911436834
 C       -12.3402840936        1.9630278795        3.4302332526
 O       -11.4294929652        2.6713610390        3.0252280603
 C       -13.7098105925        2.5892492726        3.4423650210
 C       -13.7155526691        3.9378026326        2.6369687499
 C       -13.1092781624        5.0147747461        3.4059720705
 O       -12.8662892911        5.0455786521        4.5861286906
 C       -12.9614492072        6.4136496708        2.6386341977
 C       -11.3966661020        6.2996143461        2.1595659389
 O       -11.1869006461        6.0667236412        0.9852702205
 C       -10.3423864131        6.4234832385        3.2322677424
 C        -9.3200178615        5.2664461364        3.3860356749
 C        -8.1320443540        5.4484412068        2.4691452817
 O        -8.0357665224        6.5025015673        1.8051804795
 C        -7.0458164138        4.2866360124        2.2227018495
 C        -7.5189505403        3.6885690972        0.7730914507
 O        -8.4534779986        4.1130527408        0.1553175176
 C        -6.7737018763        2.4759586175        0.2324780285
 C        -7.3019808006        1.9786947723       -1.1175367597
 C        -6.6178291118        2.7562398567       -2.2746410411
 O        -5.4674613008        3.0194506950       -2.3369343965
 C        -7.5994680413        3.4001187530       -3.4491527164
 C        -7.7780567895        4.8253857078       -2.9487544086
 O        -8.8670533355        5.1314881532       -2.4524891830
 C        -6.6178582722        5.8357435539       -3.1116780859
 C        -6.8775820583        7.1036819255       -2.3027705987
 C        -8.0753379643        7.9414326127       -2.6579882284
 O        -9.0202200596        7.9776634357       -1.8712608264
 C        -8.1133200907        8.8742470793       -3.8513698091
 C        -8.9525179357        8.0291906418       -4.9854492780
 O        -8.4216612942        7.1668807106       -5.6013692135
 C       -10.4643645870        8.3488600570       -5.3394689191
 C        -8.9106356427       10.2045617756       -3.4203421527
 C        -6.7859218695        9.2023928464       -4.4341035892
 C        -6.7116033774        3.5262035738       -4.7029647461
 C        -8.8869991843        2.6495493888       -3.7203277969
 C        -5.6286030916        4.9182469723        1.9635509595
 C        -7.0002994653        3.2380451210        3.2955907669
 C       -13.7757720439        6.5997013423        1.3957591329
 C       -13.1970364156        7.6653764040        3.5436760666
 C       -13.1055538604        0.3046644269        5.2673897336
 C       -10.6387564677        0.6876921156        4.9167294668
 C       -11.2008129727       -0.2930626012       -2.5064663934
 C       -11.3667897780       -2.6785455212       -1.7242030857
 H        -7.1501656412       -2.4401877677       -1.7164409845
 H        -8.3177017704       -3.8139379814       -1.8588297489
 H        -8.4348486069       -2.7952854593       -0.4788690098
 H       -12.1529693264       -1.2592155984        0.5418519071
 H       -11.6953106256        0.3777835604        0.5373098557
 H       -10.0433027992        0.0270169667        2.4087959745
 H       -10.2555661045       -1.6086515469        2.3120237483
 H       -13.9966568648        2.8741848785        4.4250793188
 H       -14.5002799630        1.8876735062        3.0506938490
 H       -14.6851073446        4.2622573578        2.3710935237
 H       -13.1953090426        3.7683546065        1.6235747020
 H       -10.6376701609        6.6678594262        4.2354189455
 H        -9.6674731863        7.2338482149        3.0051987893
 H        -9.7788805084        4.2746435052        3.4071576961
 H        -8.8893527975        5.3714537692        4.4494001935
 H        -7.0343115228        1.7293180172        1.0006629791
 H        -5.6856426713        2.7296090081        0.2653228666
 H        -8.3783707319        1.9694032140       -1.2777481152
 H        -6.9808825381        0.9611782120       -1.1913659394
 H        -6.6846150799        6.1549292395       -4.1542860221
 H        -5.6409956193        5.3611385221       -2.9303212140
 H        -6.0304282872        7.8698889907       -2.3981723072
 H        -6.9792863389        6.8907603789       -1.2631583081
 H       -10.8552778300        7.6931456972       -6.1007547191
 H       -10.4997268085        9.3761971650       -5.8011233721
 H       -11.1248678420        8.3371885693       -4.5055942269
 H        -9.8740199178        9.9565520187       -2.9293863012
 H        -9.1813531056       10.8261820444       -4.3356834129
 H        -8.3817986952       10.8778320984       -2.7175745383
 H        -6.2707312675        8.3056276770       -4.7178120055
 H        -6.2005998433        9.8306638316       -3.7629009622
 H        -6.8368100748        9.7065842830       -5.4310411654
 H        -7.0805724177        4.1482830201       -5.4639123115
 H        -6.6797495931        2.5372324213       -5.1480970418
 H        -5.6623491596        3.7534811952       -4.4639051072
 H        -9.2372066999        2.8661082224       -4.6739176607
 H        -9.6986491345        2.9549803642       -3.0952463891
 H        -8.7044607696        1.6239941973       -3.6617432485
 H        -5.1050142373        5.2740437858        2.8147989234
 H        -5.8870917454        5.8354036811        1.4325606344
 H        -4.9200130322        4.4049264565        1.3095111475
 H        -6.9258608000        3.6457441414        4.3247220415
 H        -6.2008964731        2.5285492185        3.0589880937
 H        -7.9853584363        2.7035973647        3.3664234778
 H       -14.8128712611        6.6305210685        1.5785633599
 H       -13.6099333739        5.9376098167        0.5575263919
 H       -13.6207202831        7.5926991489        0.9749401410
 H       -12.9617551411        7.3161955012        4.5645886292
 H       -14.2242686183        7.9882648027        3.4941610517
 H       -12.4893687942        8.4340095513        3.2058785528
 H       -14.0587472841        0.0819681222        4.8597108391
 H       -13.1865371362        1.1192279397        5.9524742173
 H       -12.8049898828       -0.6060219808        5.8802928132
 H       -10.3214549332       -0.2488219953        5.4148337084
 H       -10.5814954417        1.5232116489        5.5375880073
 H        -9.9877471788        0.9651549395        4.1602668492
 H       -10.7463803634        0.6675094105       -2.2800343452
 H       -12.2606478622       -0.1573625510       -2.2092203163
 H       -11.0832339089       -0.5775349953       -3.5399863149
 H       -12.4054799359       -2.4482221500       -1.5043734231
 H       -10.9965913321       -3.3842247471       -1.0201925223
 H       -11.2333835747       -3.0015226027       -2.7208383042
 Na       -9.3360195988        6.1031440762       -0.2757493047
