117

 C        -7.8287409241       12.9362124859       -2.3525378977
 C        -7.3839692463       11.4997329477       -2.8361061410
 O        -8.1493989437       10.7089748440       -3.2894534465
 C        -5.8607634903       11.1541180956       -2.8008454367
 C        -5.4355851735       10.9433467204       -1.2449497781
 O        -5.5990580425       11.9213617160       -0.5899636049
 C        -4.9045608173        9.5694818547       -0.6551002145
 C        -6.0681270211        8.6549883752       -0.3840078786
 C        -5.6142502462        7.2605894558        0.1024243516
 O        -4.9502504401        6.5953890715       -0.7006280657
 C        -5.8948902112        6.8504367654        1.6641242630
 C        -7.4355177827        7.0826136954        1.8426320156
 O        -7.7370543253        8.2342273778        2.0785492636
 C        -8.3799689270        5.8563849340        1.7323609461
 C        -9.5707709282        6.2313925271        0.7381404672
 C       -10.7005418113        5.2728580731        0.6755890748
 O       -10.5327967212        4.1331090352        1.1538115076
 C       -11.9161357842        5.5578114751       -0.2326484362
 C       -12.8478168465        4.3466926936       -0.1984930365
 O       -12.5372935479        3.2410357583       -0.5857701239
 C       -14.3604384383        4.3783811765        0.5283495387
 C       -14.9430423524        2.9566005207        0.7779035317
 C       -14.0625774565        2.1561426361        1.8633119991
 O       -13.0006798809        2.5176158310        2.3003932623
 C       -14.6111596871        0.5993400399        2.0478021725
 C       -13.4072424185       -0.3850440657        1.5834007808
 O       -12.4687014560        0.1542203671        1.0759924916
 C       -13.6872295275       -1.9427270433        1.4010319561
 C       -12.6157658637       -2.5818585312        0.6257344271
 C       -12.9842088691       -2.7734516196       -0.8184432046
 O       -14.1074425326       -2.7595020171       -1.2125433656
 C       -11.6266032246       -2.9814201362       -1.6846492368
 C       -10.4865233602       -2.0637345819       -1.4285520659
 O       -10.0697780487       -1.7545272208       -0.3150052157
 C        -9.7764264755       -1.2984566715       -2.6166423608
 C        -8.5573553343       -0.6147930965       -2.0813020530
 C        -8.8128038572        0.3387746251       -0.9165624684
 O        -9.7863631083        1.0875785652       -1.0444029604
 C        -7.6969376184        0.6870974037        0.2722404628
 C        -8.3987352488        0.4040969794        1.5976617496
 O        -9.5551402027        0.6455483421        1.8045653287
 C        -7.6619277078       -0.3181420336        2.8324310687
 C        -6.3736032190       -0.1087961167        0.1013511441
 C        -7.4054762538        2.2535088618        0.3325539359
 C       -11.1008579264       -4.3815433348       -1.2548601404
 C       -12.0463256642       -3.1844945802       -3.1287831656
 C       -14.9467265199        0.4660237480        3.5579344449
 C       -15.9161902292        0.2499697051        1.2619393489
 C       -12.6690168452        6.8835044284        0.2617250690
 C       -11.4056488101        5.7746693378       -1.7114343514
 C        -5.5033134662        5.3311868646        1.8987186383
 C        -5.2783565461        7.9228144499        2.6198793706
 C        -5.6308442749        9.9408445107       -3.8338471575
 C        -4.9980201515       12.4104043883       -3.3016807824
 H        -7.5765847795       13.5574893151       -3.1965016801
 H        -7.1506558521       13.3089055739       -1.6244187825
 H        -8.9511051657       12.8166351793       -2.1785666873
 H        -4.2557368618        9.8097617857        0.2755119728
 H        -4.3117655296        8.9683775815       -1.3073409271
 H        -6.6692628276        8.4915052782       -1.3074625061
 H        -6.7629794650        9.0731213157        0.4385966541
 H        -8.8920172248        5.7005127060        2.6597527391
 H        -7.8053158328        4.9398366479        1.4817379089
 H        -9.1311090437        6.3187847817       -0.2754475920
 H        -9.9645030956        7.2888356800        1.0017967744
 H       -15.0187961317        4.9362422003       -0.1821142014
 H       -14.1470022874        4.9819843043        1.4132889468
 H       -15.0412206378        2.3328238417       -0.1709490872
 H       -15.9048423142        3.1712144167        1.1763234436
 H       -14.7096626964       -1.9487045744        0.9649265193
 H       -13.8528496664       -2.3802034236        2.3858634033
 H       -12.5925884576       -3.6415041192        1.0170063606
 H       -11.7123583098       -1.9294641647        0.7654775510
 H       -10.5116082341       -0.6210865643       -3.0799154507
 H        -9.3936651805       -2.0820799499       -3.3037206423
 H        -8.1903790673        0.0503768617       -2.8045797488
 H        -7.7197022489       -1.2865340689       -1.8468116126
 H        -7.6794029193       -1.4236106689        2.6695838726
 H        -8.2423811734       -0.2111194111        3.6429343652
 H        -6.5719185417       -0.0727924526        2.9598772101
 H        -5.9365527628        0.1083159097       -0.9273481887
 H        -6.4794448908       -1.1498601073        0.2681248318
 H        -5.6093053505        0.2639613397        0.7662794033
 H        -8.2836446778        2.6559777284        0.7429070811
 H        -7.0723351383        2.7309309377       -0.6149201308
 H        -6.6553263909        2.4289738782        1.1039793823
 H       -11.9157018190       -5.1313304642       -1.1726221265
 H       -10.5825724180       -4.4473752927       -0.2746139729
 H       -10.3189148577       -4.8197399830       -1.8853431494
 H       -11.7341039507       -2.4267938286       -3.8496770184
 H       -13.1465467868       -3.2719234234       -3.1297576238
 H       -11.7240823132       -4.1531439899       -3.4072060245
 H       -15.4986609028        1.2912382803        3.9602974926
 H       -14.0492257859        0.2820060359        4.1878231077
 H       -15.6301181625       -0.3878428974        3.7430382177
 H       -16.6852129239        1.0221204116        1.3302798521
 H       -16.3008486776       -0.7099695733        1.6030524560
 H       -15.8315090504        0.2311608553        0.1821010881
 H       -13.4088350997        7.2094590142       -0.4637034851
 H       -12.0048697157        7.6893986791        0.3971047921
 H       -13.1566015995        6.6277397094        1.2401361358
 H       -10.5698441932        5.1311511952       -1.8696025082
 H       -10.9085213904        6.7335502781       -1.7870097123
 H       -12.2212106130        5.5748902140       -2.3824617338
 H        -4.4196106771        5.2190337680        1.9286312116
 H        -5.8272516605        4.7482366782        1.0646115511
 H        -5.9585407051        4.9394070561        2.8108242585
 H        -5.8063590726        8.8499995220        2.4813248839
 H        -4.2333981753        8.2003430207        2.6255496771
 H        -5.4776670599        7.6802917213        3.6350548116
 H        -5.9913968768        8.8929153754       -3.4691076935
 H        -4.5155682008        9.9433676922       -3.8676879166
 H        -6.0293023348       10.1441683843       -4.8357288943
 H        -5.3904534126       13.2829544884       -2.8425944844
 H        -4.9626996541       12.4738893595       -4.3707094507
 H        -3.9066991928       12.2988790166       -2.9998270861
 Na      -11.1201486989        1.9050585455        0.7505147369
