117

 C        -8.2571315279       -3.6525512625       -2.0046914107
 C        -8.7764068524       -2.2289552260       -2.0600273515
 O        -8.2225859234       -1.3346845440       -2.6210494884
 C       -10.2013078575       -1.8694976135       -1.3774320601
 C       -10.0487393664       -1.2044303334        0.0730855913
 O        -9.1116846154       -0.4285070532        0.3227691748
 C       -11.0720935539       -1.4589017135        1.1689976733
 C       -10.9254949521       -0.4735809361        2.4082053485
 C       -12.2772815215       -0.2380026677        3.2115472925
 O       -13.3219785689       -0.7148220823        2.8639554943
 C       -12.2502377386        0.7328359186        4.5043981289
 C       -12.2645504043        2.1130520812        3.6968921668
 O       -11.2647298016        2.4780495930        3.1099761997
 C       -13.5763952620        2.7953147020        3.6278216589
 C       -13.4376198612        4.0750219012        2.7137858564
 C       -13.2729039265        5.3800770730        3.5453132734
 O       -13.2736866080        5.3529649605        4.7964248764
 C       -12.9288925932        6.6953636687        2.6704826051
 C       -11.5194476531        6.4215953131        2.1990196288
 O       -11.3973685098        6.3461693761        0.9687001476
 C       -10.3760591211        6.4695878040        3.0849536870
 C        -9.3707034270        5.2576977791        2.8644088274
 C        -8.1514304533        5.5419720085        2.0770882400
 O        -8.0237164154        6.6146690919        1.5490306764
 C        -7.0561545592        4.3660279642        1.8646714426
 C        -7.5803043891        3.6435470975        0.6197014195
 O        -8.6618905668        3.9653354908        0.1254260103
 C        -6.7881473706        2.4497942473        0.0330867742
 C        -7.3150736782        1.8943227610       -1.3287570956
 C        -6.7715977838        2.6605534096       -2.5245976336
 O        -5.5632027730        2.6390868078       -2.7086866471
 C        -7.6252237899        3.3815365433       -3.6264500901
 C        -7.8412025292        4.7818653668       -3.0341076298
 O        -8.7307226139        4.9392616461       -2.2230067026
 C        -6.8446431966        5.8406100780       -3.3620358554
 C        -6.8953249358        7.1077194835       -2.4074397706
 C        -8.0589384064        8.0869389335       -2.6578390005
 O        -9.0269298903        8.0913840838       -1.9217670218
 C        -7.9439544415        9.0427643799       -3.9515660627
 C        -8.7849697722        8.1975543681       -4.9872119547
 O        -8.2025886553        7.2988909392       -5.6113079359
 C       -10.2277972377        8.5402894185       -5.2276087787
 C        -8.4949864773       10.4022553350       -3.5817071093
 C        -6.4715850821        9.1826095670       -4.3976083943
 C        -7.0263180005        3.3977817898       -5.0290200635
 C        -9.0036903925        2.6400401229       -3.8222283195
 C        -5.6167783749        4.8302882823        1.7703314108
 C        -7.2028903626        3.2343196546        3.0313916955
 C       -13.9401561201        6.7735659886        1.4908714181
 C       -13.0198905958        7.8556588694        3.6822627306
 C       -13.4499948503        0.5663375219        5.4463083049
 C       -10.9253269475        0.4926035814        5.2251095942
 C       -10.8315079580       -0.8104810444       -2.2452214448
 C       -11.1103539649       -3.1074373442       -1.3226461441
 H        -7.2665375398       -3.6831801818       -2.4338780369
 H        -8.8592269368       -4.4097810158       -2.5742456573
 H        -8.1719297733       -3.9770164494       -0.9418733651
 H       -10.9796671971       -2.5103139868        1.5023276650
 H       -12.0765313932       -1.3935446198        0.8171291076
 H       -10.6159898344        0.5140130715        1.9987687205
 H       -10.1298191170       -0.8820416463        3.0084630118
 H       -13.9566780186        3.0978495071        4.6334195280
 H       -14.3126579362        2.0914330207        3.2346471720
 H       -14.3966987536        4.1414688582        2.1656751294
 H       -12.7038421276        3.8878438490        1.9972322276
 H       -10.6387830126        6.4201629050        4.1047596366
 H        -9.7921436861        7.3899602079        2.9398688730
 H        -9.9347196236        4.3711853272        2.4022196990
 H        -9.0144826325        4.9159465333        3.8300385450
 H        -6.8050140022        1.6564127826        0.8013096361
 H        -5.7115489434        2.7560237990        0.1113550904
 H        -8.3857669532        1.8034061047       -1.4171067586
 H        -6.8969126886        0.8948986144       -1.4817404459
 H        -6.9057995026        5.9974091155       -4.4472734020
 H        -5.8511160576        5.4229331379       -3.2401101222
 H        -5.9357161529        7.6221954772       -2.4506373527
 H        -7.0920747028        6.6836151360       -1.4001252063
 H       -10.7754917907        7.9156631058       -5.9678257170
 H       -10.2467557262        9.5924576389       -5.3882646108
 H       -10.8218712009        8.4381191105       -4.3114062619
 H        -9.4065202493       10.3519586307       -2.9352004927
 H        -8.6098929844       11.1086099623       -4.4244043493
 H        -7.7687975450       10.9660833301       -2.9564336925
 H        -5.8948149951        8.2555096582       -4.5997576245
 H        -5.9906053675        9.7169346529       -3.5863102303
 H        -6.3356858533        9.7767474712       -5.3034142880
 H        -7.6888987303        3.9189567610       -5.7224636680
 H        -6.7967637016        2.4641597382       -5.5241428065
 H        -6.1313564246        3.9565117517       -5.0043247864
 H        -9.4066579828        2.9833042821       -4.7471164579
 H        -9.6503706394        2.9984919965       -3.0900724143
 H        -9.0390237171        1.5926807408       -3.7571977814
 H        -5.1148626513        5.3979398074        2.5530836496
 H        -5.5157000265        5.2926535529        0.8072415431
 H        -5.0403925227        3.9403005003        1.7316666517
 H        -6.7347469379        3.3702345762        4.0065428151
 H        -6.9252842869        2.2188047991        2.6338468265
 H        -8.2545018490        2.9675746342        3.2202076667
 H       -14.9967510739        6.6879439889        1.7323719927
 H       -13.6728235874        6.0007747847        0.8051693860
 H       -13.9437905194        7.6991849131        0.9660535365
 H       -12.4584727630        7.5833301721        4.5581427614
 H       -14.0652091084        8.0402384745        3.9281892352
 H       -12.6960485584        8.7779314477        3.1521520393
 H       -14.3847359429        0.5104200340        4.8717459901
 H       -13.4943134372        1.3420661357        6.2269679900
 H       -13.4660452701       -0.2770431915        6.0610041785
 H       -10.7948333060       -0.5353028537        5.4001730719
 H       -11.0302092199        0.9280424946        6.2135114728
 H       -10.0559621695        0.9241269422        4.7030703932
 H       -10.1493348622        0.0072330566       -2.4979967820
 H       -11.7680993307       -0.5273786015       -1.7901805731
 H       -11.0389596279       -1.2999353190       -3.2196514280
 H       -12.1290885631       -2.7623609284       -1.4343776882
 H       -10.9755593669       -3.6266770673       -0.3788075694
 H       -10.8889632283       -3.7673237573       -2.1495615773
 Na       -9.2973949866        6.3062649452       -0.3554385319
