117

 C        -8.3839358486       -3.7237069053       -1.9394170835
 C        -8.7824220176       -2.2593273623       -1.8031823111
 O        -7.9834903524       -1.3334386189       -2.0343881388
 C       -10.1936851131       -2.0126023573       -1.1683775300
 C       -10.0512201243       -1.2668861440        0.1929852135
 O        -9.1774603287       -0.4598519972        0.3504478247
 C       -10.9382757131       -1.6315540818        1.3311631475
 C       -10.9963069394       -0.5031930103        2.3528515766
 C       -12.3227166533       -0.2493390955        3.0092671099
 O       -13.4001960236       -0.6423615657        2.6879701876
 C       -12.2146254049        0.6886248403        4.3586731943
 C       -12.2174967842        2.1027462928        3.8331997102
 O       -11.2142924832        2.7715094936        3.5654162905
 C       -13.5279836928        2.8281718707        3.6509981355
 C       -13.4688035623        4.0895355796        2.7725981536
 C       -13.1646264775        5.3811059671        3.4832116802
 O       -13.3606458465        5.4693133188        4.6557701758
 C       -12.8865993041        6.8035529513        2.5670893713
 C       -11.4898833831        6.6505314372        2.0073771204
 O       -11.2436702251        6.6842330432        0.8260069582
 C       -10.2999914867        6.5587284460        2.9703835449
 C        -9.3932666768        5.3105448206        2.8959023356
 C        -8.1089583835        5.3990598515        2.0890174486
 O        -7.8028027979        6.4890782399        1.5903834566
 C        -7.1806873211        4.1992579262        1.8750460756
 C        -7.7144778852        3.4761556836        0.4613600083
 O        -8.7229110962        3.8213484355       -0.0517961217
 C        -6.9048663496        2.3100073291       -0.1850382665
 C        -7.4835948207        1.8982137639       -1.4782398056
 C        -6.7852427495        2.6504123309       -2.6790433110
 O        -5.5794260818        2.7826465405       -2.7130845850
 C        -7.7082841595        3.2953205794       -3.6199365020
 C        -7.9529812239        4.7403456939       -3.0555689311
 O        -8.9349106964        5.0028254547       -2.3895692843
 C        -6.8629809833        5.8197801988       -3.2782753333
 C        -6.8526406315        6.9977960415       -2.3154867297
 C        -7.9119042150        8.0677743838       -2.6227445709
 O        -8.9388162426        8.0647133788       -1.9533649162
 C        -7.7933979237        9.0318949536       -3.9408160615
 C        -8.6946200817        8.2783770068       -4.9804345689
 O        -8.1555888137        7.4331946653       -5.6273848231
 C       -10.1718514158        8.6455509463       -5.1580136321
 C        -8.5161492533       10.3440859127       -3.5315563531
 C        -6.3857509847        9.1855713499       -4.4510771846
 C        -7.0035988737        3.3896275408       -4.9640444293
 C        -9.1318326956        2.6379407585       -3.7629170685
 C        -5.7185460390        4.8671173745        1.5334699223
 C        -7.0841967711        3.2181039539        3.0941027408
 C       -14.0234230398        6.9734595025        1.5798119951
 C       -12.9335939177        8.0493582330        3.5965847625
 C       -13.4193160472        0.3010200221        5.2429258751
 C       -10.8745240275        0.5567864568        5.1592881981
 C       -10.9140949314       -1.0171041930       -2.0881473737
 C       -11.0177242120       -3.2896816885       -1.0658525747
 H        -7.3670233015       -3.8058381661       -2.2612566614
 H        -8.9422053244       -4.2378269567       -2.6825011231
 H        -8.3989858182       -4.2538519834       -0.9948376861
 H       -10.6461763719       -2.5787019111        1.8069435911
 H       -12.0240958494       -1.7720891602        1.0289492418
 H       -10.6890208945        0.4361191827        1.8184736254
 H       -10.2450601712       -0.7662687383        3.1434481340
 H       -13.8677840964        3.2215319372        4.6119372108
 H       -14.3245187134        2.1134906224        3.3399375068
 H       -14.4016617275        4.2540315637        2.3046806130
 H       -12.7491827820        3.8460278848        1.9337809153
 H       -10.5856206907        6.5047353253        4.0503313101
 H        -9.6445323694        7.4187970969        2.8229254866
 H        -9.9726615784        4.5125958750        2.6094622555
 H        -9.0609836897        5.1197886581        3.9287990298
 H        -6.8146819522        1.5197750343        0.5732033527
 H        -5.8665620385        2.5968629354       -0.2198719386
 H        -8.5919186372        2.0295074841       -1.5359315060
 H        -7.2815077078        0.8165377199       -1.6745067061
 H        -6.8923743174        6.2014679157       -4.2872722322
 H        -5.8715378520        5.3621386351       -3.2833716674
 H        -5.8469862440        7.4502050409       -2.4227149215
 H        -7.0426115955        6.6704021139       -1.3068096408
 H       -10.5613808961        7.9529902450       -5.8808301710
 H       -10.2986887579        9.7350739373       -5.3317885179
 H       -10.7881008374        8.4577358666       -4.3079481110
 H        -9.5198890313       10.2892078384       -3.1746382929
 H        -8.4464402765       11.0771555285       -4.3347447430
 H        -7.9688912457       10.8493309305       -2.7445125191
 H        -5.9848133096        8.3200887323       -4.9785984330
 H        -5.6422714714        9.4739571304       -3.6769376931
 H        -6.4178167431       10.0793048621       -5.1329740999
 H        -7.3170509165        4.1866251439       -5.6131749602
 H        -7.1396746232        2.4781140139       -5.5374509190
 H        -5.8941806294        3.4494799003       -4.8468750301
 H        -9.5674073617        2.7655238114       -4.7678989859
 H        -9.7851971112        2.8951092731       -2.8645042326
 H        -9.0441056268        1.5314017323       -3.6335249298
 H        -5.0887355658        5.0145049450        2.4046671577
 H        -5.9768248810        5.8425483463        1.0450189953
 H        -5.0064487434        4.2629863412        0.8879962407
 H        -6.4435408090        3.6281132378        3.8755035684
 H        -6.6631300837        2.2784891347        2.8579373201
 H        -8.0083884945        2.8978332605        3.5559137680
 H       -14.9923798244        7.0100003912        2.0632973138
 H       -14.1243124503        6.1890708150        0.8002685675
 H       -13.9380982732        7.9763891154        1.0641671789
 H       -12.3907466381        7.7569500282        4.4798629929
 H       -13.9421746309        8.2974356607        3.7598237841
 H       -12.4986767748        8.9309307468        3.1101960585
 H       -14.2692555951       -0.1394768085        4.8206936395
 H       -13.7662681708        1.0756588949        5.8690847633
 H       -13.0170274176       -0.4681761142        5.9724235780
 H       -10.6412248721       -0.5133440707        5.4538571681
 H       -11.0069725782        1.0408281694        6.1148768619
 H       -10.0634012610        0.8884136452        4.5614840249
 H       -10.3651911982       -0.0912205060       -2.0718590388
 H       -11.9694428168       -1.0071343567       -1.7575658491
 H       -10.8746144299       -1.3148962981       -3.1156788489
 H       -11.8976842684       -3.1315200743       -0.4438513663
 H       -10.4255671596       -4.1122307286       -0.6835213944
 H       -11.3900115971       -3.5739406107       -2.0395136765
 Na       -9.5389470520        6.2895924645       -0.5345114299
