117

 C        -8.2766575582       -3.7629839887       -1.9656707115
 C        -8.7333903617       -2.3268091090       -1.5654158020
 O        -8.0383307984       -1.3469152794       -1.6835972511
 C       -10.1802197021       -2.1186317606       -1.1057733590
 C        -9.9665558259       -1.3472291721        0.2805596967
 O        -9.1710120236       -0.3949500209        0.3492037772
 C       -10.9670987369       -1.6423734497        1.3406251890
 C       -10.9435055560       -0.4831968016        2.4076084250
 C       -12.2777341015       -0.2288307172        3.0575143954
 O       -13.2857475105       -0.6057005982        2.5272403000
 C       -12.2191674355        0.6609451635        4.3206264265
 C       -12.1668893613        2.2447593224        3.8845962750
 O       -11.1067534674        2.7673472028        3.8129994268
 C       -13.5752107695        2.8727038516        3.5558574494
 C       -13.5895165579        4.1587147966        2.7279154376
 C       -13.2202059811        5.5457494071        3.4461254257
 O       -13.3202322890        5.6543035276        4.6829321788
 C       -12.8380078619        6.7991316060        2.6189807809
 C       -11.3692039811        6.7335996147        1.9374973012
 O       -11.3432942587        6.7998022075        0.7120242145
 C       -10.2283343679        6.6058228662        2.9273388030
 C        -9.4240835972        5.2738358319        2.9499888162
 C        -8.1539478386        5.3768347002        2.0197500370
 O        -7.9006283172        6.4863877888        1.5156477626
 C        -7.1731888768        4.1598281618        1.7815564671
 C        -7.7181277485        3.4085756790        0.5231762321
 O        -8.7119907132        3.8902411186        0.0542192736
 C        -6.9929157243        2.1869224993       -0.0972325544
 C        -7.4628095511        1.7627752160       -1.4706157479
 C        -6.8768849311        2.7019490345       -2.6296340513
 O        -5.6632611125        2.8416520684       -2.6476200449
 C        -7.7876746167        3.4007240580       -3.7115771610
 C        -8.0152767729        4.7803540117       -3.1060060494
 O        -9.0839011732        5.0694784605       -2.5669031463
 C        -6.7989284369        5.7260465530       -3.2511202069
 C        -6.8014833433        6.9330312271       -2.3137879161
 C        -7.9187304524        8.0183802520       -2.6837613890
 O        -8.9040040172        8.1108813344       -1.9612375503
 C        -7.7616551973        8.9970166124       -3.8613407961
 C        -8.7252610182        8.2887957098       -5.0513644075
 O        -8.1409548614        7.4309433302       -5.7186327556
 C       -10.1299674145        8.6697549278       -5.1378546544
 C        -8.4396083086       10.3469254569       -3.3847512794
 C        -6.3703475024        9.1983572676       -4.3677718478
 C        -7.0279478002        3.4059978172       -5.0705466547
 C        -9.1401080180        2.6825727255       -3.8509741386
 C        -5.8037270420        4.7382676141        1.3517904938
 C        -7.0714210968        3.2290137547        2.9495847089
 C       -13.9029823549        7.0216844692        1.5292093416
 C       -12.8853781413        8.0000531125        3.5905325071
 C       -13.3758902287        0.2203697171        5.2302411725
 C       -10.9234894856        0.5439001560        5.1281911929
 C       -10.9574613187       -1.1087622281       -2.0164880636
 C       -11.0759294469       -3.4297482140       -1.0319004921
 H        -7.3330359424       -3.9011867959       -2.3338574549
 H        -8.9686401267       -4.1618822580       -2.7212356631
 H        -8.2935243013       -4.4208287994       -1.0701051469
 H       -10.8323871280       -2.6528576613        1.8365992896
 H       -11.9398526250       -1.6519179283        0.9245590389
 H       -10.6527914926        0.4063292620        1.8787410235
 H       -10.2454886360       -0.7327716777        3.0939422571
 H       -14.1286596898        3.1374181914        4.4192170583
 H       -14.1993116754        2.0589655467        3.1040735879
 H       -14.6149997206        4.2986250881        2.3210263265
 H       -12.9510285309        3.8813920935        1.7986915577
 H       -10.5839001304        6.7286539918        3.9489869839
 H        -9.4564600621        7.4034811994        2.7098268473
 H       -10.0897625674        4.4995934213        2.5573698951
 H        -9.1146280007        5.0054634952        3.9816837092
 H        -6.9334990111        1.4499041200        0.6647499259
 H        -5.9280314903        2.4669905704       -0.0510099409
 H        -8.5158882384        1.9369162465       -1.5504570742
 H        -7.2904708652        0.7310577429       -1.7039749328
 H        -6.6642792121        6.0736100216       -4.3033392351
 H        -5.8861615433        5.0715066609       -3.1751137171
 H        -5.7782672038        7.3946828737       -2.2624922456
 H        -7.0946404494        6.6142009621       -1.3528718003
 H       -10.6085922814        7.9240257364       -5.8369504631
 H       -10.1851565337        9.7308208542       -5.3766377834
 H       -10.6744124222        8.5783857126       -4.2509733943
 H        -9.4390007744       10.2461870557       -3.0428804390
 H        -8.4965548443       10.9718210149       -4.2703027110
 H        -7.9320836138       10.9315674722       -2.6704619283
 H        -5.9743542605        8.3580687615       -4.9274758869
 H        -5.6265380059        9.3605011041       -3.6084098796
 H        -6.3768050613       10.1519331032       -4.9576816235
 H        -7.2426951972        4.2169560942       -5.7655078036
 H        -7.3131094406        2.4527262272       -5.5900834522
 H        -5.9300449464        3.3162469392       -5.0143025351
 H        -9.7447587424        2.8783548408       -4.7838709796
 H        -9.6832537983        2.6505329884       -2.8632071297
 H        -8.8632620144        1.6015964496       -3.9607960807
 H        -5.3313103194        4.8605821987        2.3434717535
 H        -5.9289239574        5.7511974183        0.8840589892
 H        -5.0535618745        4.1093797339        0.8807439274
 H        -6.8786665393        3.7223333894        3.8474669234
 H        -6.3067394864        2.4324585819        2.9640220896
 H        -7.9931874015        2.6716552669        3.0537273282
 H       -14.8810172115        7.1048100093        2.0161886560
 H       -14.0966639953        6.2017637110        0.7919188589
 H       -13.7542183794        7.9892951436        0.9706260548
 H       -12.2809717353        7.7556208137        4.4372722793
 H       -13.9070143204        8.1850011802        3.8034388997
 H       -12.4957162067        8.9441343571        3.0482134995
 H       -14.3553461133       -0.0342469422        4.7475305018
 H       -13.6875822711        0.9759372280        5.9839064059
 H       -13.0800370035       -0.7014265892        5.7819424808
 H       -10.7063713705       -0.4921659516        5.5009969211
 H       -11.1083592231        1.1032087930        6.0470399948
 H       -10.0527765859        0.8046928609        4.5174628911
 H       -10.4767501781       -0.1531367515       -2.0644634445
 H       -11.9274960676       -1.1594080487       -1.5606106222
 H       -11.0704089725       -1.4447624417       -3.0481858923
 H       -12.0212135819       -3.3703868456       -0.4248356806
 H       -10.4040099925       -4.1965683675       -0.6049302477
 H       -11.3640494128       -3.7947309943       -2.0105535201
 Na       -9.5209893459        6.2610118176       -0.5495537610
