117

 C        -8.1979687391       -3.9369897276       -2.0435828402
 C        -8.4509809987       -2.5711840638       -1.3174310341
 O        -7.6056389709       -1.7059468518       -1.3487973898
 C        -9.9704445503       -2.3863122732       -0.7539660008
 C       -10.0874953462       -1.3248215829        0.4668969574
 O        -9.5268095861       -0.2547454861        0.4443806678
 C       -11.1364040824       -1.5778723623        1.5969648490
 C       -11.0071840192       -0.7243921975        2.9958126058
 C       -12.1875695943        0.1913858617        3.2150016502
 O       -13.0011108874        0.4423767280        2.3205671484
 C       -12.3343199506        1.0192644511        4.5424492120
 C       -12.2398965777        2.4720118598        4.0194499932
 O       -11.1121258863        3.0252712703        4.0884409685
 C       -13.4715771342        3.1055428446        3.4316816142
 C       -13.2360149273        4.3362134193        2.5657344096
 C       -13.0715256829        5.5507492261        3.3535853063
 O       -13.0308713503        5.6242072439        4.5586285997
 C       -12.7361217892        6.8810167021        2.5379089893
 C       -11.3061754043        6.6354728079        1.8878675870
 O       -11.3229304950        6.1556337074        0.7431768712
 C       -10.0632262284        6.5984311711        2.8644247506
 C        -9.2228119582        5.2707281452        2.8528320306
 C        -8.1173446276        5.4382134487        1.8025310254
 O        -7.9170856627        6.4538936247        1.2131122726
 C        -7.3786331160        4.0482558339        1.3186553208
 C        -7.9870196286        3.3437310647        0.1863483896
 O        -8.7623261773        3.8863909574       -0.6469056909
 C        -7.5468983080        1.8787467998       -0.1457276841
 C        -7.9865619053        1.5779524011       -1.5296916436
 C        -7.2859039700        2.7141926619       -2.4549877665
 O        -6.2287658194        3.2185750395       -2.1716637226
 C        -7.9896366820        3.2870487147       -3.7100852614
 C        -8.1055107973        4.8663111791       -3.3665634807
 O        -9.1513125437        5.2779462866       -2.9290376487
 C        -6.9056217420        5.8027667467       -3.3859340917
 C        -6.9492156099        6.8701278607       -2.2863767726
 C        -7.9506866532        8.0033337896       -2.5958124204
 O        -8.9421430993        8.1770384423       -1.9227340842
 C        -7.7257809838        8.9871848082       -3.7028558309
 C        -8.4468600811        8.3628451169       -4.9389367018
 O        -7.9853331434        7.5384510992       -5.6920311035
 C        -9.9300951266        8.7418988993       -5.0144368772
 C        -8.1522401409       10.3902607082       -3.2536224016
 C        -6.2151808735        9.1840953203       -4.0931797134
 C        -7.0994982428        3.0252297959       -4.9118112386
 C        -9.3631182158        2.7858468464       -4.0656822675
 C        -5.8312623064        4.2920528364        0.8965334627
 C        -7.3088136201        3.0771402254        2.5307688442
 C       -13.7546425898        7.0035216724        1.3965682130
 C       -12.7420964351        8.0421433940        3.5850932996
 C       -13.6896310341        0.6927180908        5.2183406192
 C       -11.1764625434        0.8310585245        5.4881150768
 C       -10.5705001294       -1.7607189854       -2.0275442733
 C       -10.5580206843       -3.6816846886       -0.3637688201
 H        -7.0949825465       -4.0085318978       -2.3171567546
 H        -8.8195053642       -3.9882676867       -2.9132988191
 H        -8.4195460706       -4.7842086539       -1.4720368618
 H       -11.1854913142       -2.6007916948        1.9620854409
 H       -12.1134666532       -1.3343742294        1.1834472584
 H       -10.1739206475       -0.1420083497        2.8493510943
 H       -10.8272191065       -1.4032752676        3.8154351842
 H       -14.1962440506        3.3357795930        4.2622699243
 H       -14.0442025621        2.4173163242        2.8677151259
 H       -14.0690883532        4.2803438535        1.7306920708
 H       -12.2783525872        4.1873895940        2.0632796647
 H       -10.3535720424        6.6816243860        3.9319277028
 H        -9.3718751191        7.4120233861        2.5489194958
 H        -9.8147126804        4.3324288402        2.5503764350
 H        -8.7560004362        5.0868577933        3.7963642355
 H        -7.7517858152        1.0881264316        0.5623907777
 H        -6.4618124805        1.8085109434       -0.1197992015
 H        -9.0360474623        1.5716876281       -1.6543090858
 H        -7.5655131159        0.6476817109       -1.8638880101
 H        -6.7390423356        6.2471536260       -4.3961648461
 H        -5.9607320643        5.2247266786       -3.3021067336
 H        -5.9963431327        7.3207533249       -2.3650299942
 H        -6.8856158073        6.4669305926       -1.2543769638
 H       -10.3349297433        8.1270696453       -5.7729836418
 H       -10.1718356237        9.7709998661       -5.2221528216
 H       -10.4666138836        8.5032176271       -4.0188658214
 H        -9.1935378089       10.4782917283       -2.9925653911
 H        -8.0844314054       11.0400696718       -4.0625041131
 H        -7.5539281130       10.7007432227       -2.4121547211
 H        -5.7575235697        8.2204186399       -4.4191938706
 H        -5.6055303203        9.3613757718       -3.1826205896
 H        -6.0250502519       10.0073195159       -4.7490143179
 H        -7.4260743334        3.5840990246       -5.8260377957
 H        -6.9989577603        1.9601878075       -5.1071380234
 H        -6.1084722029        3.4206750770       -4.8046155388
 H        -9.6092094952        2.8500691515       -5.1777213018
 H       -10.1676661977        3.4066215849       -3.5900559326
 H        -9.4364118423        1.6524423248       -3.8323118028
 H        -5.3439655135        4.8633975679        1.7332169396
 H        -5.7739631779        4.9217657327       -0.0030062504
 H        -5.3980269150        3.2983216143        0.5872007466
 H        -6.5199556797        3.2974636567        3.2645938187
 H        -7.0253874706        2.0829430596        2.2559254010
 H        -8.1941169842        3.0210587340        3.1143400209
 H       -14.8084980068        6.6894090872        1.6649885838
 H       -13.4788553747        6.2946808374        0.6134241457
 H       -13.5930722995        7.9337433137        0.8633989235
 H       -11.9971260635        7.9801965468        4.4098130077
 H       -13.7655131231        8.1860215200        4.0366858338
 H       -12.4225518770        8.8198408691        3.0097904172
 H       -14.4418828464        0.2928789767        4.5132907205
 H       -14.2617725714        1.5622787923        5.5975136938
 H       -13.5805682133       -0.1191124233        5.9295935835
 H       -11.2093560619       -0.1690131798        5.8873408191
 H       -11.2466316190        1.5911087027        6.3161776364
 H       -10.1422107550        1.0266300183        5.0511894657
 H       -10.2617479574       -0.6994447472       -1.9928870171
 H       -11.6406920844       -1.7896021472       -2.0263009714
 H       -10.2040281726       -2.2988148105       -2.9192672926
 H       -11.4542845908       -3.5748433895        0.2143682225
 H        -9.9176393921       -4.3341070349        0.2316090630
 H       -10.8650660270       -4.2746475666       -1.2508479892
 Na       -9.5671895173        6.1487905733       -0.7614393235
