117

 C        -8.1065210017       -3.9407750756       -1.9164709501
 C        -8.4782759355       -2.5929782417       -1.1789621846
 O        -7.5869481421       -1.7205355024       -1.1644110732
 C        -9.9338630656       -2.4377951263       -0.5778001093
 C       -10.1267311871       -1.3184740132        0.5914016039
 O        -9.6126860061       -0.2352279141        0.4408500977
 C       -11.1947076372       -1.5724801188        1.6439045042
 C       -10.9649323532       -0.6955173475        2.9277178578
 C       -12.1381402276        0.2628445233        3.1002553025
 O       -12.8825781065        0.5315522619        2.2250121074
 C       -12.3131182320        1.0057056913        4.5905975995
 C       -12.2097468452        2.5407265630        4.0745314623
 O       -11.1546745528        3.1321208962        3.9429801151
 C       -13.4893601162        2.9948353985        3.4212941755
 C       -13.2302880341        4.2846951000        2.5145508691
 C       -12.9553052984        5.5359799435        3.3596035296
 O       -13.0243815748        5.5879086475        4.5679714288
 C       -12.6373684076        6.9121827761        2.4454922356
 C       -11.2749880665        6.4449214474        1.9145164150
 O       -11.2734654893        6.1083033804        0.7424205504
 C       -10.0820951611        6.6866107290        2.7279416031
 C        -9.2297848239        5.3692491567        2.8571253797
 C        -8.1147495185        5.2827954799        1.7288822184
 O        -7.8788651226        6.3166019402        1.1526695191
 C        -7.3695869322        3.9596670418        1.4207928371
 C        -8.1048122896        3.3693838390        0.1307645105
 O        -8.7882504500        3.9989869993       -0.6165411351
 C        -7.6991967636        1.9194201266       -0.2115063411
 C        -7.9099757603        1.5490059984       -1.6440755861
 C        -7.3570619147        2.6739935599       -2.5148999845
 O        -6.3407407660        3.1988663341       -2.0848004311
 C        -8.0509253715        3.2932183379       -3.7341939670
 C        -8.1427655421        4.8398680954       -3.3572936460
 O        -9.2101543186        5.3140918111       -3.0087973573
 C        -6.8387777503        5.6654873142       -3.3895885609
 C        -6.9826895593        6.8629436797       -2.3524763082
 C        -7.9094574812        8.0814864671       -2.5998467753
 O        -8.9173741528        8.1337534828       -1.8691298390
 C        -7.6433357178        9.1000464761       -3.7144735021
 C        -8.4860453164        8.4256717408       -4.9413533939
 O        -7.8918589587        7.6080494687       -5.6132673879
 C        -9.9669301779        8.7534197687       -5.0115522172
 C        -8.1868263481       10.4702158894       -3.2955218280
 C        -6.0739840812        9.1707143461       -4.0568481526
 C        -7.0745098428        3.0455205186       -4.9457164886
 C        -9.5077730770        2.7307954462       -4.1448407537
 C        -5.9091320453        4.2792070556        0.8473724814
 C        -7.1951838290        2.9515146413        2.5286717032
 C       -13.6915297407        7.1892417138        1.4293158410
 C       -12.7156788354        8.1155314056        3.4363051865
 C       -13.7183829538        0.8054217662        5.1695357582
 C       -11.1345292021        0.6744611822        5.5602718566
 C       -10.6783298012       -1.7496873686       -1.8037165930
 C       -10.4880044816       -3.7870034429       -0.2648390120
 H        -7.0702733673       -3.9450620561       -2.1700889158
 H        -8.7504397406       -3.9413917433       -2.8264604794
 H        -8.3653936692       -4.9144273993       -1.4053595632
 H       -11.3087871785       -2.5238547726        1.9687220097
 H       -12.1633771288       -1.2443073523        1.2558051758
 H       -10.0972751368       -0.1465197698        2.7303145676
 H       -10.7452970731       -1.3377444173        3.7914218867
 H       -14.2849959537        3.2031311117        4.1691027622
 H       -13.9605264046        2.2131603955        2.8517986131
 H       -14.1206225955        4.4247851919        1.9234103173
 H       -12.4079322992        4.0658056551        1.8125764122
 H       -10.3722905522        6.9064927947        3.8010216902
 H        -9.5137494699        7.4860695149        2.2553388275
 H        -9.8603226185        4.4433608026        2.9992700494
 H        -8.5288406476        5.4858517381        3.7516263062
 H        -8.3665821607        1.3330368553        0.4716694963
 H        -6.7654966965        1.6035949535        0.2226797278
 H        -8.9597532085        1.4629819464       -1.8202679127
 H        -7.3955453923        0.6778271313       -1.9726446624
 H        -6.8045340416        5.9826897553       -4.4824385172
 H        -5.8725456423        5.1205778740       -3.3396533239
 H        -6.0244112748        7.2332223831       -2.0642680154
 H        -7.2486666476        6.3809862307       -1.3704798659
 H       -10.4020562804        8.2035619654       -5.8663978966
 H       -10.2197320518        9.8348556187       -5.1828295044
 H       -10.4267103810        8.4626364525       -4.0863623675
 H        -9.2117621800       10.4214351894       -3.0617869968
 H        -8.1571395900       11.2087990352       -4.0637848164
 H        -7.6700229634       10.7811333671       -2.4168850843
 H        -5.7502553194        8.2769061431       -4.5650377197
 H        -5.4323073935        9.1727025594       -3.1551890526
 H        -5.8034939583       10.0494953376       -4.6699790895
 H        -7.1284398541        3.6292254782       -5.8628995286
 H        -7.1466201919        1.9720045024       -5.1405391573
 H        -5.9937200346        3.1854950360       -4.6507160453
 H        -9.7438278472        2.7602392284       -5.2162305656
 H       -10.3805301275        3.2980768115       -3.6825737808
 H        -9.5060999605        1.6669732649       -3.8797767684
 H        -5.2859361848        4.7604833805        1.5774962625
 H        -6.0500695046        5.0062685976        0.0458903943
 H        -5.5766226605        3.3682455225        0.3023529407
 H        -6.6995108236        3.3512798486        3.4461406072
 H        -6.6051933001        2.1162043680        2.2200554071
 H        -8.1628432331        2.6378383966        2.9681686602
 H       -14.6721861533        6.9181624776        1.8102311154
 H       -13.5507694503        6.6308413253        0.4769654762
 H       -13.5371865429        8.2410174598        1.1075522236
 H       -12.0951409298        7.9567724081        4.3467075956
 H       -13.7398927766        8.1836534965        3.7888057827
 H       -12.3373966366        9.0432187989        2.9136933702
 H       -14.5048155988        0.2896538470        4.5950304311
 H       -14.2164002371        1.7458013239        5.4422280149
 H       -13.6168580358        0.1088066646        6.1137742541
 H       -11.3432351639       -0.3697154495        5.9585712050
 H       -10.9605968030        1.4051716771        6.3711517891
 H       -10.1788629255        0.6730094477        5.0574094678
 H       -10.5104462893       -0.6824386882       -1.7906120176
 H       -11.7677318551       -1.8657795085       -1.6745678413
 H       -10.3741879880       -2.2618356755       -2.6878365385
 H       -11.5402823334       -3.6504776918        0.0389394061
 H       -10.0485964843       -4.3164495670        0.5971914256
 H       -10.5151732072       -4.5088412365       -1.1178175687
 Na       -9.6103588655        6.1483394136       -0.8123685151
