117

 C        -8.0389500678       -3.8659783239       -1.7476423588
 C        -8.3985671934       -2.5955298293       -0.9929876041
 O        -7.6645611573       -1.6724432109       -0.8927025965
 C        -9.9344239508       -2.4820294436       -0.5032747105
 C       -10.1532345371       -1.4011787892        0.5781806535
 O        -9.6544775121       -0.2832375158        0.5132859728
 C       -11.1523162037       -1.6421754302        1.6719969185
 C       -10.9337158012       -0.6693782097        2.8625119922
 C       -12.0730892715        0.2958303701        3.1310679623
 O       -12.8418465864        0.5461832612        2.2045890227
 C       -12.2479508130        1.0181738682        4.5054614854
 C       -12.1903122154        2.5653477117        3.9259519133
 O       -11.1588295461        3.1697599256        3.9149820529
 C       -13.5366946763        3.0690166666        3.4218355225
 C       -13.3059835285        4.3306409081        2.4851413330
 C       -13.0160779286        5.5667469937        3.3284543668
 O       -13.0035735178        5.5442453117        4.5407599864
 C       -12.7184623353        6.8725107127        2.4621339017
 C       -11.2283199502        6.5933416579        1.8056344653
 O       -11.1977059366        6.0267062137        0.7451200780
 C        -9.9545949216        6.7339650303        2.6722560099
 C        -9.1205191109        5.4072262207        2.9164502591
 C        -8.0577001454        5.2208746571        1.7333741713
 O        -7.8315454708        6.1791646131        0.9289574015
 C        -7.3617420900        3.9123957872        1.4239345198
 C        -8.1292250577        3.2857301167        0.1300894909
 O        -8.8240756605        4.0251754434       -0.5093089154
 C        -7.9595602584        1.8342287146       -0.2499814942
 C        -8.0024426588        1.4846135298       -1.7331218674
 C        -7.4307955687        2.7153901202       -2.4972928187
 O        -6.3479476728        3.1681729377       -2.1171580107
 C        -8.0350197890        3.3057642864       -3.8079811435
 C        -8.2303513197        4.8523322899       -3.5333879810
 O        -9.3009126074        5.2887031827       -3.1046782741
 C        -6.9708608066        5.6819298513       -3.3956297832
 C        -6.9162656630        6.8114654648       -2.3646027420
 C        -7.8648043901        7.9608315478       -2.5630218554
 O        -8.8737840691        8.1447395731       -1.9013169515
 C        -7.5663538262        9.0931764713       -3.6584830745
 C        -8.4361004390        8.5062743751       -4.8650743713
 O        -7.8678925518        7.7183623164       -5.5904073088
 C        -9.8751418245        8.7499225475       -5.0293252723
 C        -8.1909044628       10.5136216898       -3.3304795916
 C        -6.1321064136        9.1561827743       -4.0305934534
 C        -7.0746887305        3.1096103892       -4.9961676551
 C        -9.4590221297        2.7512340423       -4.1254413240
 C        -5.9971601516        4.3979693495        0.8537184948
 C        -7.1886348467        2.9364631882        2.5862626147
 C       -13.7477038212        7.2362346419        1.3811976127
 C       -12.5488164254        8.1285871268        3.4006687643
 C       -13.5941818232        0.7874412557        5.1372815794
 C       -11.1951773054        0.5863681498        5.5290192980
 C       -10.8425329157       -1.7961550907       -1.6462256332
 C       -10.5362605133       -3.8639187952       -0.1454843266
 H        -7.0361664544       -3.8616625308       -2.1051849581
 H        -8.8236552156       -4.0152804852       -2.5419285386
 H        -8.2077159958       -4.7531586367       -1.0625389562
 H       -11.2200040403       -2.6343959472        2.1475643914
 H       -12.1516387639       -1.4049387616        1.3594188819
 H        -9.9438602760       -0.0877236793        2.6803265697
 H       -10.7385641073       -1.2974846546        3.7310256057
 H       -14.1890568022        3.3151468834        4.2327260219
 H       -14.1345893081        2.2711456584        2.8811575960
 H       -14.1576637966        4.4899990954        1.9577715069
 H       -12.5414532683        4.0906986627        1.7434287227
 H       -10.2452721545        7.0906512025        3.6520376074
 H        -9.2590555105        7.4251381573        2.1890234185
 H        -9.7281878221        4.5363005626        2.8537374677
 H        -8.5418103727        5.3968426663        3.9030523071
 H        -8.5896175969        1.3317754520        0.4943176406
 H        -6.9723364258        1.5070704445        0.1733440419
 H        -9.0178680707        1.2844583677       -2.1228388999
 H        -7.3013519309        0.6847406576       -2.0211311276
 H        -6.6567304822        5.9542311429       -4.4114007810
 H        -6.1386685130        5.0034632564       -3.1624089402
 H        -5.8535545142        7.1956234029       -2.2460423914
 H        -7.0220225059        6.3500888258       -1.4041854387
 H       -10.2480558683        8.2426305871       -5.9760587429
 H       -10.0506605663        9.8308353063       -5.2266770782
 H       -10.4057121044        8.4891235936       -4.1682328968
 H        -9.2368186186       10.4290088650       -3.0571894006
 H        -8.2058746369       11.1924329406       -4.2040969813
 H        -7.6791074013       10.9795907175       -2.5139172226
 H        -5.8424794855        8.3499991989       -4.6933244014
 H        -5.4255004731        9.1745310359       -3.2241863469
 H        -6.0237098299       10.0754724529       -4.6526124491
 H        -7.0905382543        3.7832434893       -5.8320585070
 H        -7.1522050783        2.0602842131       -5.3456927705
 H        -6.0294654241        3.1871312884       -4.6196313120
 H        -9.8860443399        3.0016051924       -5.0631888433
 H       -10.1543228103        3.1690938935       -3.4317722981
 H        -9.4074800283        1.7153248011       -4.0293016582
 H        -5.4543542503        4.8104506109        1.6644886472
 H        -6.1056311043        5.2126879465        0.1454658791
 H        -5.5999422248        3.6055592782        0.2932333143
 H        -7.1883760740        3.4170065508        3.5562973522
 H        -6.2939789854        2.2322615338        2.5168816061
 H        -8.1338022780        2.3717504340        2.7485484861
 H       -14.7582120830        7.1818444478        1.7323512719
 H       -13.6648074961        6.6195631222        0.4609687531
 H       -13.4560985175        8.2503451377        1.0586220750
 H       -12.0165365709        7.9045404179        4.3139286456
 H       -13.5214479083        8.4517180077        3.7361548259
 H       -12.0038172372        8.9657589675        2.8085674248
 H       -14.4319415627        0.4291665989        4.4958678652
 H       -14.0103022674        1.7022493201        5.6303561718
 H       -13.5228770292        0.0134709520        5.8894282327
 H       -11.5173378968       -0.4427624262        5.7815270901
 H       -11.2057509393        1.1981985365        6.4038117711
 H       -10.1760837259        0.6164060392        5.2265518522
 H       -10.6928586339       -0.7571426654       -1.8247902731
 H       -11.8389188353       -1.8369464919       -1.1822227972
 H       -10.8521640275       -2.4745661768       -2.4743879945
 H       -11.6581095831       -3.8884844632       -0.0580572170
 H       -10.2259077984       -4.2300382619        0.8505651730
 H       -10.2741073607       -4.6420364929       -0.8409079838
 Na       -9.5876573569        6.2037472842       -0.8418124413
