117

 C        -7.9751944621       -3.7747310815       -1.5770788426
 C        -8.5017597159       -2.5307216529       -0.9173678263
 O        -7.7580869082       -1.6370867152       -0.6121405660
 C       -10.0864616076       -2.5057500170       -0.4574696360
 C       -10.1971861749       -1.5188807200        0.6682049105
 O        -9.6272080164       -0.4285348518        0.5419652964
 C       -11.1249939017       -1.7604112188        1.8360706457
 C       -10.9259632589       -0.7291426332        2.9479636652
 C       -12.0956485599        0.2450353576        3.1028871666
 O       -12.8879163177        0.4822635276        2.1574629257
 C       -12.2301796779        1.0363837122        4.4487968290
 C       -12.1754267885        2.5442042256        3.9393728615
 O       -11.1143980693        3.1779197533        3.8919947095
 C       -13.4917834823        3.1712328175        3.4216517263
 C       -13.4269079784        4.3784643713        2.4740562173
 C       -13.0933560989        5.6239645724        3.2431789764
 O       -12.9737173407        5.6279032507        4.4399500006
 C       -12.5421156456        6.9159919275        2.4640628245
 C       -11.2301026419        6.5328533037        1.8755465145
 O       -11.2144754591        6.0476129616        0.7366609153
 C        -9.8936008320        6.7533362443        2.6455265123
 C        -9.0813078521        5.5171889092        2.7846085030
 C        -8.1245025843        5.2445858430        1.6440917811
 O        -7.9673401697        6.1875318861        0.8562654286
 C        -7.3532854623        3.9424875719        1.3844321582
 C        -8.1427980298        3.2693510129        0.1869376688
 O        -8.9114856177        3.9384315607       -0.5265639442
 C        -7.9599396610        1.8253248521       -0.1931262555
 C        -8.1165826480        1.6264693136       -1.7213810006
 C        -7.3844089318        2.7002921523       -2.5761741169
 O        -6.3366838638        3.1316513174       -2.1756221137
 C        -8.0538529481        3.3549374368       -3.8288868966
 C        -8.2812122157        4.8471601958       -3.4179385412
 O        -9.3991278186        5.2846476787       -3.2133804979
 C        -6.9897023569        5.7646784559       -3.4605037992
 C        -6.8793249984        6.8526988221       -2.4170950124
 C        -7.8659975000        7.9989942312       -2.5005936938
 O        -8.8845958604        8.0939733875       -1.8635284437
 C        -7.5599396513        9.0715893803       -3.6840009915
 C        -8.3830652539        8.4457614367       -4.9204607659
 O        -7.7628615172        7.7415188260       -5.6694073609
 C        -9.8644147484        8.8186910165       -5.0431416129
 C        -8.1433528927       10.4366918924       -3.2549752777
 C        -6.1205838754        9.2275400429       -4.0404072062
 C        -7.1180305948        3.1639861766       -5.0269484168
 C        -9.4331429692        2.7453736279       -4.1755308970
 C        -5.8572842699        4.2905659087        0.8707629578
 C        -7.2481541349        2.9463336216        2.5830593360
 C       -13.6375497664        7.1513697952        1.3723261923
 C       -12.3904166759        8.1339512950        3.4622609235
 C       -13.6186931572        0.6985007952        5.0470951778
 C       -11.1375321105        0.7016207219        5.4348876302
 C       -10.9213027165       -1.9889567015       -1.6294073810
 C       -10.5642691128       -3.8640914949       -0.0364785010
 H        -6.9541421310       -3.5085107407       -2.0117723956
 H        -8.6308489118       -4.2793201170       -2.2661574670
 H        -7.8236092278       -4.4594369177       -0.7755264467
 H       -11.1803946865       -2.7976489520        2.3400718155
 H       -12.1619005968       -1.5419518466        1.5468049491
 H       -10.0147963557       -0.0588606911        2.6237597966
 H       -10.6021757533       -1.2219790017        3.8865007483
 H       -14.1411610612        3.4140460939        4.2591004801
 H       -14.0786565416        2.3752791057        2.8986230376
 H       -14.3909309367        4.4044943283        1.9064604858
 H       -12.6865570433        4.1992973450        1.7357299660
 H       -10.0519640173        7.1335248287        3.6211501390
 H        -9.2854457103        7.4357438095        2.0304740291
 H        -9.6873698634        4.6318672302        2.8076240645
 H        -8.4574083229        5.4846498440        3.6383149005
 H        -8.6640220954        1.2395983784        0.3933580338
 H        -7.0062869925        1.4038508392        0.2056523794
 H        -9.1944314374        1.7088427176       -2.0030592971
 H        -7.6970315784        0.6203849726       -2.0378873340
 H        -6.8854543188        6.1183111284       -4.4612442717
 H        -6.0952264238        5.1677959998       -3.3733454780
 H        -5.8206089276        7.2015011656       -2.2997828884
 H        -6.9933279565        6.3483814105       -1.4711760167
 H       -10.3515399012        8.3810437614       -5.8825589238
 H        -9.9550068424        9.8708781192       -5.2389855369
 H       -10.3873300089        8.6228336506       -4.0565904134
 H        -9.1800170066       10.4704133833       -2.7982254911
 H        -8.1846278420       11.1317411978       -4.1095586678
 H        -7.4224894620       10.8682915347       -2.5299271238
 H        -5.7341772494        8.3640702578       -4.6279329483
 H        -5.5020008940        9.3849521175       -3.1618995337
 H        -6.0117532334       10.0376780338       -4.7398825177
 H        -7.2601394477        3.8546415357       -5.8777994709
 H        -7.1567834942        2.1499694755       -5.4265333716
 H        -6.1157363603        3.3270241253       -4.7126598179
 H        -9.9884855622        3.2789506702       -4.8835536236
 H       -10.0367866930        2.7647947549       -3.3504401272
 H        -9.2500534603        1.7385740341       -4.4546839491
 H        -5.4574358540        4.7247866621        1.7682320681
 H        -5.7931343696        5.0346104446        0.1130452704
 H        -5.4297323562        3.3930642878        0.4959376163
 H        -7.4077962175        3.4749923474        3.5256548759
 H        -6.2771146485        2.3872866958        2.6135858848
 H        -8.0804039126        2.2554538570        2.6852465936
 H       -14.6266425855        7.2095190391        1.8974828271
 H       -13.6418655596        6.2725330198        0.7453883546
 H       -13.5373683204        8.0263518533        0.7486639165
 H       -12.0780325040        7.8590289169        4.4663782540
 H       -13.4547157958        8.4629930640        3.5971883029
 H       -11.8369354823        8.9216252361        3.0583799476
 H       -14.4172744469        0.8330417569        4.3212739894
 H       -13.8815903850        1.3078511392        5.9334591657
 H       -13.6989971553       -0.2813159588        5.3590860639
 H       -11.1598225955       -0.3077464581        5.6194514821
 H       -11.3934351419        1.1773069023        6.3597785896
 H       -10.1495575676        1.1008067366        5.2119384524
 H       -10.4595374760       -1.0966111331       -2.0540968549
 H       -11.8470527710       -1.6102920599       -1.2634446728
 H       -11.0630019824       -2.8452366312       -2.3061063669
 H       -11.6130653554       -3.9772541233        0.1917762227
 H       -10.0608542827       -4.1993916370        0.8654269293
 H       -10.3219975129       -4.5976006019       -0.7832339187
 Na       -9.5165612797        6.2469897628       -0.8764270091
