117

 C        -7.8683497530       -3.9108972221       -1.1982113370
 C        -8.5544282561       -2.6702645397       -0.4353002622
 O        -7.8948786112       -1.6503092433       -0.2754720601
 C       -10.0942534323       -2.7794295799       -0.0656273969
 C       -10.5541407746       -1.7176319861        0.9799034569
 O       -10.4944646525       -0.5361494053        0.6748037995
 C       -11.0985907746       -2.1864026711        2.3060782231
 C       -11.1199688339       -1.2568586598        3.4764726915
 C       -12.0766069986       -0.0029764953        3.2314448279
 O       -12.7629175220        0.0032214294        2.2523168957
 C       -12.2650859007        1.1332718104        4.3570713718
 C       -12.3916053214        2.5744580432        3.7037369602
 O       -11.3679015949        3.2039669485        3.4318905025
 C       -13.7114926011        3.2534590866        3.2747458046
 C       -13.5222313122        4.6128966235        2.4893821045
 C       -12.9721798077        5.7976587402        3.3000627726
 O       -12.9633976412        5.7670201093        4.4911622929
 C       -12.4633132428        7.1530692049        2.5110703963
 C       -11.0950288941        6.8623794928        1.8564052450
 O       -11.1471147896        6.3014646613        0.7488534220
 C        -9.7285443411        7.0330150234        2.7024818095
 C        -8.9942564196        5.6957037197        2.7358130109
 C        -7.9779906870        5.4199392931        1.5723564170
 O        -7.5183836537        6.2831798657        0.8624870596
 C        -7.4084323275        3.8374291567        1.2743043153
 C        -8.1843833195        3.1805164663        0.1140895393
 O        -9.0739126892        3.7695428322       -0.4888312138
 C        -7.7451112563        1.8712698685       -0.4365946876
 C        -8.1076150720        1.6716112933       -1.9420594049
 C        -7.3189818490        2.5804936007       -2.9108767593
 O        -6.1936748470        2.9318598681       -2.7483206595
 C        -8.1497591379        3.3706065850       -4.0703921693
 C        -8.1639145874        4.8444727682       -3.5242142750
 O        -9.2275911419        5.2200522917       -3.0953249048
 C        -6.8739817701        5.7052425495       -3.4860991090
 C        -6.8070511409        6.8713175401       -2.4671173164
 C        -7.8604210375        8.0132202023       -2.5898296879
 O        -8.9223444732        8.0729723791       -2.0057057540
 C        -7.5886298068        9.1528182196       -3.6599629860
 C        -8.2678913062        8.6820259242       -5.0550724017
 O        -7.6565130811        8.0347210211       -5.8869274622
 C        -9.7245297228        9.0282641655       -5.1877110953
 C        -8.0639641012       10.5516461624       -3.2927316487
 C        -6.0551620587        9.2572111654       -4.0118834974
 C        -7.2660481587        3.2071537317       -5.3034995668
 C        -9.5990469148        2.9208172772       -4.3854792857
 C        -5.8641626134        4.0996207291        1.0924491303
 C        -7.4711167973        2.9717209188        2.5182127735
 C       -13.5588386404        7.3025307104        1.3663627282
 C       -12.3723151756        8.3350578535        3.3859049898
 C       -13.5661998300        0.8073706308        5.1762682048
 C       -11.0408915265        1.0854879375        5.2943994142
 C       -10.7803887231       -2.3194515852       -1.3881325533
 C       -10.4832848858       -4.2048315486        0.3116529864
 H        -7.1213614521       -3.4895771630       -1.9764167379
 H        -8.5765058841       -4.6012318354       -1.6551281515
 H        -7.3735109234       -4.5443236517       -0.4754681700
 H       -10.5374578059       -3.0789160664        2.7020279329
 H       -12.0860301606       -2.6123012769        2.1594867665
 H       -10.0295266797       -1.1012964533        3.7810028633
 H       -11.4280802932       -1.7746469785        4.3958998533
 H       -14.3927300848        3.4642462545        4.1114833696
 H       -14.2590448090        2.5046612788        2.6612948187
 H       -14.4987283945        4.9824061669        2.1608763945
 H       -13.0134713486        4.4244003001        1.6386578751
 H        -9.8038336216        7.3387986782        3.7185163250
 H        -9.1258011866        7.7978938848        2.1854896731
 H        -9.5908384586        4.7763847431        2.8435887568
 H        -8.3059652161        5.6339051436        3.5513915063
 H        -8.2200534961        1.0114088192        0.0592831784
 H        -6.6893057557        1.6429856219       -0.1736638939
 H        -9.1874567972        1.8726338201       -2.1038913946
 H        -7.8340547728        0.6321611062       -2.2485524926
 H        -6.8191490135        6.1557238436       -4.4793255002
 H        -5.9448241940        5.0959299761       -3.4298964991
 H        -5.7888578977        7.3612397869       -2.4987493408
 H        -6.9835726675        6.4788892338       -1.4390819908
 H       -10.1707182211        8.5182123810       -5.9889918432
 H        -9.8799819457       10.0310097506       -5.5378506372
 H       -10.2706870887        8.8661476244       -4.1820799237
 H        -9.1181753905       10.5957985152       -3.0440146150
 H        -7.7290305360       11.2629276649       -4.0007820488
 H        -7.5889562396       10.8404161745       -2.3684659995
 H        -5.7985934775        8.4093262764       -4.6587083917
 H        -5.4033299003        9.4054864693       -3.1549122648
 H        -5.8767431360       10.0598194798       -4.6843802576
 H        -7.6349458526        3.8479352812       -6.1493455099
 H        -7.4434555279        2.2459130276       -5.7953264983
 H        -6.2106437586        3.3048768773       -5.1469072276
 H        -9.7344805406        3.1255392921       -5.4246332949
 H       -10.3742235891        3.3994992178       -3.8184306615
 H        -9.6400471110        1.8387112411       -4.2180499062
 H        -5.5627776081        4.6926467256        1.9556296589
 H        -5.7008807566        4.5960294700        0.1695877552
 H        -5.3979562024        3.1172459749        1.1775434770
 H        -6.7236521534        3.3090577439        3.2912577430
 H        -7.4063024228        1.9003962488        2.2693798142
 H        -8.4720743553        3.0625176858        2.9891277089
 H       -14.5998123560        7.4090068870        1.7014550002
 H       -13.3178612156        6.5298865737        0.6808632127
 H       -13.4595973575        8.2675298396        0.9402435990
 H       -11.7033923464        8.1408414064        4.2622735330
 H       -13.4137513036        8.6167922989        3.7454447810
 H       -12.1068590879        9.1857946450        2.8576873948
 H       -14.3249921444        0.6118505355        4.4115238435
 H       -13.8450825930        1.5742150584        5.9407235726
 H       -13.5314284337       -0.0432653924        5.8524947492
 H       -11.1080427156        0.2865621375        5.9898980089
 H       -10.9463471712        2.0000084732        5.9178050756
 H       -10.1157292208        0.9619635383        4.6580977999
 H       -10.9349534163       -1.2387259588       -1.2931877843
 H       -11.6975654556       -2.8309877045       -1.5247566449
 H       -10.0810399598       -2.5362133352       -2.2074119359
 H       -11.5604811892       -4.3951061303        0.3459585691
 H       -10.0683527832       -4.5564961218        1.2818345022
 H       -10.1126472428       -4.9452890442       -0.4386797604
 Na       -9.5530758440        6.1131855863       -0.8799820596
