117

 C        -7.8518117573       -3.9074776759       -1.0340105019
 C        -8.5820776600       -2.7024133165       -0.3642131815
 O        -7.9154953151       -1.6981157518       -0.1847463036
 C       -10.0526006630       -2.8590106936       -0.0111517187
 C       -10.5457546617       -1.6894641272        1.0874675085
 O       -10.7184276385       -0.5643689453        0.7663476746
 C       -11.0662979401       -2.2214230683        2.4779090238
 C       -11.2305127621       -1.2158680310        3.6139991715
 C       -12.1922165815       -0.0641320240        3.2729305464
 O       -12.7786502211       -0.0086287262        2.2455329099
 C       -12.3219443895        1.1526164856        4.2932361113
 C       -12.3017121407        2.5760824324        3.5423978589
 O       -11.2241673958        3.0755548743        3.3508023745
 C       -13.6601457700        3.2877862539        3.2437193378
 C       -13.6134907138        4.5941038618        2.4958727275
 C       -12.9539017229        5.7955038206        3.3164508990
 O       -12.9188948018        5.7758852743        4.5206382979
 C       -12.4846332016        7.1658729840        2.4937380900
 C       -11.0488914729        6.8185111046        1.8089541335
 O       -11.0432041818        6.3693074565        0.6652498644
 C        -9.7577945085        7.0302299194        2.5163436938
 C        -9.0036677928        5.6764025968        2.7510830650
 C        -7.9205564116        5.3189639528        1.5994541695
 O        -7.6275779154        6.2518241211        0.9239648452
 C        -7.4297803554        3.8798892432        1.4008896837
 C        -8.1591670420        3.2861800355        0.0053762720
 O        -9.1107968028        3.8232034671       -0.4979890463
 C        -7.7556586658        1.8184582756       -0.5108020257
 C        -8.0825709163        1.6741776303       -1.9461003349
 C        -7.3090086022        2.6582832107       -2.9544152430
 O        -6.0943832076        2.7954451074       -2.8249573402
 C        -8.0640602110        3.3526806897       -4.1475677624
 C        -8.1606241639        4.9089105746       -3.5866116880
 O        -9.1782823643        5.2658117174       -3.0200741032
 C        -6.8993955060        5.7415908626       -3.5311805538
 C        -6.9209835357        6.8505302847       -2.5153014836
 C        -7.8398313105        8.0231941487       -2.7389417964
 O        -8.9032497040        8.0695222355       -2.0861608669
 C        -7.5481860265        9.1514703345       -3.7435903318
 C        -8.2800955673        8.6904676845       -5.0550129090
 O        -7.6454148042        8.0783240460       -5.8920597660
 C        -9.7428688196        9.0787243906       -5.2385695965
 C        -8.0630593984       10.4798711286       -3.2089661581
 C        -5.9314407683        9.2735502102       -4.0130058633
 C        -7.3143694158        3.2231750523       -5.5197053514
 C        -9.5471605679        2.9222148004       -4.3792209629
 C        -5.8440880512        3.9977024350        1.0036753572
 C        -7.5354858593        2.8767213993        2.5372059991
 C       -13.5633262741        7.4370600924        1.4157044556
 C       -12.5403324259        8.3634806677        3.5189569355
 C       -13.5633568816        0.9681727989        5.1838726998
 C       -11.0122548096        1.2372710376        5.2079228375
 C       -10.8071378009       -2.4021315620       -1.3542265033
 C       -10.4160221852       -4.2561325461        0.3696255884
 H        -7.0908966430       -3.4189092705       -1.5519778958
 H        -8.4743488530       -4.4787171500       -1.7656094273
 H        -7.4732475959       -4.6912274349       -0.3314513915
 H       -10.5426667810       -3.1020260196        2.8816148634
 H       -12.1314068792       -2.6941584215        2.2595623502
 H       -10.2163405573       -0.8657186909        3.8676314539
 H       -11.4506214246       -1.6673485655        4.6703527274
 H       -14.1066534781        3.5177364306        4.2641208695
 H       -14.3392392561        2.5947659542        2.8169880275
 H       -14.6190690281        4.9293126151        2.1572754246
 H       -13.0749830246        4.3556406267        1.5704759215
 H        -9.8119092862        7.4333147479        3.5520088912
 H        -9.2372669194        7.7695871559        1.9511622053
 H        -9.6244687696        4.8007065358        2.9161888230
 H        -8.4333741983        5.7667682963        3.6022060942
 H        -8.2495280809        1.0213231231        0.1069032885
 H        -6.7288049475        1.5492256772       -0.3515468344
 H        -9.1912715367        1.8294952063       -2.1026137997
 H        -7.7336115750        0.6929303309       -2.3845108871
 H        -6.8039766644        6.1347091154       -4.5303413189
 H        -6.0350344379        5.1480027442       -3.3730061024
 H        -5.9526055553        7.2765253779       -2.3712577522
 H        -7.3172988620        6.3629388038       -1.5461501008
 H       -10.1483384330        8.5839429103       -6.1401814344
 H        -9.9204864128       10.1230076910       -5.5234914657
 H       -10.2944477512        8.8372502738       -4.3694258128
 H        -9.0703501924       10.3024619736       -2.8404782689
 H        -7.9208351608       11.2968918508       -3.9250039123
 H        -7.5525024906       10.8181333073       -2.2754669600
 H        -5.5999340262        8.4338359369       -4.5978185537
 H        -5.4392908477        9.3381708272       -3.0324021579
 H        -5.6187256497       10.1713572127       -4.5517688907
 H        -7.7179438186        3.9136538564       -6.2552011575
 H        -7.6742581446        2.3328722275       -5.9912983638
 H        -6.2213700485        3.1285227060       -5.5667423681
 H        -9.7960414976        3.1256995316       -5.3571076686
 H       -10.2397234441        3.3109782703       -3.6566671174
 H        -9.5459844817        1.9094114873       -4.2462864927
 H        -5.2862860789        4.3889770125        1.8117049545
 H        -5.8601783100        4.5804951484        0.1195645888
 H        -5.5160731399        2.9671538585        0.8888738262
 H        -7.0265214297        3.2488317299        3.4881382972
 H        -7.0742105941        1.9796065898        2.1735428775
 H        -8.5914493318        2.5447183282        2.7697500028
 H       -14.5101679693        7.4704961016        1.8983219419
 H       -13.4442049139        6.7480760502        0.6087380602
 H       -13.5031606177        8.4639469687        1.1207773935
 H       -11.8970432205        8.1707140850        4.3694074853
 H       -13.5437248700        8.4990078138        3.8319899091
 H       -12.3147390497        9.3450016770        3.0632425182
 H       -14.2767167400        0.3663280686        4.7191322999
 H       -13.9607660228        1.8567698056        5.5693477564
 H       -13.2726879305        0.4929992223        6.1489256284
 H       -10.8307291514        0.3534664398        5.8246291598
 H       -11.0876843137        2.0523042789        5.9050492114
 H       -10.2026292492        1.3492635129        4.5490520752
 H       -11.0366476601       -1.3382037285       -1.2357696021
 H       -11.6908274913       -3.0221460435       -1.4813842103
 H       -10.1401581578       -2.5342825162       -2.2009434105
 H       -11.4886029555       -4.3437073079        0.4290256504
 H       -10.0058113828       -4.6300313967        1.3099708732
 H       -10.1318038017       -5.0176882266       -0.4034451414
 Na       -9.4794821039        6.1286564136       -0.7613173712
