117

 C        -7.8397562993       -3.9092339538       -0.8550121223
 C        -8.4679682379       -2.6702988519       -0.2588389532
 O        -7.9572716691       -1.6189029253       -0.0030243034
 C       -10.1655397596       -2.8536353561        0.0794939058
 C       -10.6887164561       -1.8292657803        1.1645589718
 O       -10.7458912637       -0.6293305698        0.8910377465
 C       -11.0322883637       -2.3103429471        2.5963764787
 C       -11.2892826516       -1.0998270602        3.6118857121
 C       -12.2031415585        0.0171500869        3.2509754310
 O       -12.9796322941       -0.0260624849        2.2630302455
 C       -12.2780097272        1.2627947563        4.2815217286
 C       -12.2020911046        2.5660079170        3.4773069285
 O       -11.1575174484        3.0513216278        3.0874738296
 C       -13.4980869708        3.3139501941        3.2660727371
 C       -13.4799748094        4.6287740407        2.5247031226
 C       -12.9483196025        5.7716546918        3.2755923561
 O       -12.8271999643        5.7826798003        4.4873004457
 C       -12.5770399277        7.0425100326        2.5007001406
 C       -11.1402368579        6.8191204607        1.8350320661
 O       -11.2308719997        6.4897142000        0.6679036451
 C        -9.7674231313        6.9146117153        2.4785322002
 C        -9.0486363324        5.5635120900        2.8593660620
 C        -8.0274143651        5.2433709354        1.5983268613
 O        -7.6671609368        6.1617691679        0.8461460081
 C        -7.4746826575        3.8175274269        1.3282014609
 C        -8.1391053747        3.2996212742        0.1116185446
 O        -9.0160630593        3.9220159738       -0.4618682960
 C        -7.7362127141        1.9809130224       -0.5613372180
 C        -8.0821912319        1.7298988507       -2.0355107270
 C        -7.2974029830        2.6154515649       -3.0669342950
 O        -6.0935421748        2.6856887268       -2.9055594934
 C        -8.1180591954        3.4308885505       -4.2102382579
 C        -8.1416168833        4.8749176194       -3.6296569369
 O        -9.1103824822        5.2518015617       -2.9778378572
 C        -6.8755051522        5.7596748680       -3.7158565092
 C        -6.8809857222        6.7557854301       -2.5038776778
 C        -7.8541239127        7.9726483782       -2.7960413436
 O        -8.9200108320        8.1075026541       -2.1953001981
 C        -7.5053944223        9.1267727470       -3.7308140543
 C        -8.2025218393        8.7750863241       -5.1376363341
 O        -7.6669115139        8.0577561167       -5.9362955146
 C        -9.6728573310        9.1200493903       -5.2799215378
 C        -8.0384893697       10.4511064086       -3.0994647255
 C        -5.9974106738        9.2614204100       -3.9920332526
 C        -7.3257541251        3.3765434079       -5.5064520670
 C        -9.5051493506        2.8758888416       -4.3072355302
 C        -5.9011055781        3.9493548067        0.8542725351
 C        -7.6997368320        2.8530010408        2.5006567838
 C       -13.5230419999        7.5298275355        1.3910064722
 C       -12.5384870957        8.1715836924        3.5962462065
 C       -13.5266866140        1.0837186335        5.1864491394
 C       -11.0181875451        1.3791735824        5.2160388905
 C       -10.8664532717       -2.5281469935       -1.3181858076
 C       -10.4363052650       -4.2706937717        0.4698286611
 H        -6.8544200165       -3.7310005713       -1.1891129875
 H        -8.4276968213       -4.1870100684       -1.7280764722
 H        -7.9463398131       -4.7525112198       -0.1678987477
 H       -10.2823041141       -3.0094096158        2.9782405259
 H       -11.9541560227       -2.9633875649        2.6267133868
 H       -10.3454864299       -0.7253418041        3.9643827328
 H       -11.6807137089       -1.4231441367        4.6093226996
 H       -13.8782173439        3.5394713786        4.2708861608
 H       -14.2532483951        2.6728096457        2.8257204243
 H       -14.5118828086        4.8741355088        2.2077530079
 H       -12.9088183680        4.4814501312        1.4767105066
 H        -9.7673518643        7.4982384054        3.4265053774
 H        -9.1963703326        7.5642239640        1.8080326131
 H        -9.6659582697        4.7115040555        2.7973028932
 H        -8.5284073270        5.5328965789        3.8530025921
 H        -8.1334674805        1.1720883495        0.0538195702
 H        -6.6735145223        1.7837295509       -0.4403877495
 H        -9.1294663802        1.9807936151       -2.1582454527
 H        -7.8460123999        0.7173684643       -2.3604275382
 H        -6.7866571764        6.2075063701       -4.7154670105
 H        -6.0256668349        5.1407501022       -3.5637646902
 H        -5.9287808893        7.2425194472       -2.4111189245
 H        -7.1887112437        6.1746822983       -1.6445941516
 H       -10.0883183182        8.6881469972       -6.2187794479
 H        -9.9294660278       10.1791535797       -5.4136742125
 H       -10.1654025729        8.7552791464       -4.4377408435
 H        -8.9948832351       10.0879400547       -2.7123585725
 H        -8.1198713828       11.2671218112       -3.8775125987
 H        -7.5839290099       10.9218034688       -2.2151236804
 H        -5.6249984906        8.3936848442       -4.5304901059
 H        -5.5120939607        9.4033346960       -3.0286929046
 H        -5.7360970745       10.2103219316       -4.5547807656
 H        -7.5517503079        4.0084904208       -6.3089995728
 H        -7.5093408951        2.3941577704       -5.9345633060
 H        -6.2586591367        3.3055148852       -5.2764842720
 H       -10.0737119406        3.2781208619       -5.1329668119
 H        -9.9609802991        2.9130772581       -3.3705191684
 H        -9.3533646721        1.8284110021       -4.4986895731
 H        -5.3650654411        4.1012158453        1.7681115951
 H        -5.9180943962        4.7776630093        0.1282087795
 H        -5.5642121027        2.9915144100        0.5570511157
 H        -7.5891110925        3.3626849518        3.4334107840
 H        -7.0574008661        1.9509717325        2.4864490977
 H        -8.7166565354        2.4447505728        2.3847914732
 H       -14.4307975141        7.6264497056        1.9091708988
 H       -13.5308400643        6.8914746669        0.5040313894
 H       -13.2947204668        8.5980706264        1.1717778603
 H       -11.8729124055        7.9685848538        4.3773993354
 H       -13.4986484989        8.3573393033        3.9466751397
 H       -12.2536858486        9.1595509392        3.1116612575
 H       -14.2396378480        0.4045030150        4.7678048685
 H       -13.9849498652        2.0116332794        5.4323679428
 H       -13.2193556755        0.7074966534        6.1357085170
 H       -10.7705411261        0.4307118375        5.7088814280
 H       -11.2798916707        2.0221416119        5.9974694144
 H       -10.1862237806        1.6724712959        4.6567066507
 H       -11.0300206940       -1.4726027215       -1.5381157795
 H       -11.7859492858       -3.1595628592       -1.2587439064
 H       -10.2693285136       -2.9866519740       -2.0905902288
 H       -11.4481618145       -4.4479253123        0.8525124804
 H        -9.7528194725       -4.6163991417        1.2221643425
 H       -10.3355536679       -4.9490904129       -0.3369420280
 Na       -9.2959277152        6.1900683827       -0.7429278254
