117

 C        -8.0841932870       12.7028571945       -2.4459435214
 C        -7.5577621125       11.3490457528       -2.9739476545
 O        -8.3001952229       10.4715080592       -3.4108031804
 C        -5.9952401797       11.1258817332       -2.9492710033
 C        -5.7111333526       11.0866779254       -1.3097560642
 O        -6.0099031743       12.0248628624       -0.6003983058
 C        -4.9710788567        9.7311424316       -0.8571890827
 C        -6.1671306834        8.7823157305       -0.4252298393
 C        -5.6438231405        7.3776040221        0.0393473989
 O        -5.0191614982        6.6209788577       -0.6718391840
 C        -5.8701980040        6.9920044864        1.6163450781
 C        -7.4181660851        7.1762096128        1.7555572090
 O        -7.9353325984        8.2437896160        2.0021302887
 C        -8.4075220092        5.9299470477        1.3457421520
 C        -9.5690992956        6.3630663913        0.4887461965
 C       -10.5333328558        5.2375871687        0.4666540326
 O       -10.2917164559        4.3221838374        1.1962555905
 C       -11.7923920830        5.4119446495       -0.3553184373
 C       -12.7450784439        4.1565817095       -0.1376729482
 O       -12.3597116186        3.1182312831       -0.6668890027
 C       -14.0638006424        4.3433177310        0.5170958674
 C       -14.8584781262        3.0696533805        0.7457599360
 C       -14.1219622586        2.1540594260        1.8583971195
 O       -13.1166362550        2.5298675951        2.4612681417
 C       -14.6165211784        0.6895305058        1.9737126587
 C       -13.4774538005       -0.3089738872        1.5639208615
 O       -12.3683539715        0.0181942860        1.1950318780
 C       -13.8913650158       -1.8588151840        1.7499079697
 C       -12.8930176499       -2.8356600931        1.0679564132
 C       -12.8654117442       -2.8486250993       -0.5144673528
 O       -13.9378394054       -2.7155970641       -1.0416730171
 C       -11.5476336434       -3.1158056734       -1.5480968025
 C       -10.4863007449       -1.9513902176       -1.2808789739
 O       -10.4586981566       -1.7001307487       -0.1070983644
 C        -9.6620018136       -1.3654217333       -2.4051000103
 C        -8.3771111963       -0.7622301971       -1.8384372483
 C        -8.7203590871        0.3411306105       -0.8647891381
 O        -9.7865046454        0.8624567948       -0.9905539874
 C        -7.7159402602        0.7157164602        0.1664865508
 C        -8.4110047713        0.4323993421        1.6673828393
 O        -9.5280387798        0.8196566605        1.9592590508
 C        -7.5799728529       -0.2096830932        2.6820158483
 C        -6.3197725180        0.0041096465        0.0293426077
 C        -7.4863362753        2.2677739081        0.0485335296
 C       -10.9636152549       -4.4763877801       -1.2434987318
 C       -12.1243182951       -2.9947907320       -2.9627974944
 C       -14.7282927193        0.3829859830        3.5356696072
 C       -15.9839930846        0.4973270870        1.3631258629
 C       -12.4726125865        6.6891200193        0.2138055835
 C       -11.6418471926        5.6361696897       -1.8790486056
 C        -5.3483716869        5.5140126865        1.7103049012
 C        -4.8478226297        7.7780352635        2.5316129233
 C        -5.5553513334        9.8089062429       -3.6549646838
 C        -5.1019487462       12.3083092563       -3.4349214827
 H        -8.0708858174       13.3898853995       -3.3061028839
 H        -7.3409456456       13.1177165614       -1.7608616540
 H        -9.0449357713       12.4257431290       -2.1250211655
 H        -4.2203837188        9.8165232724       -0.1198681610
 H        -4.4844498212        9.2419578715       -1.7070804193
 H        -6.9245201361        8.5342675729       -1.1635706456
 H        -6.6213718581        9.2860059901        0.3930265576
 H        -8.8992956006        5.5492680996        2.2544328721
 H        -7.9288514556        5.1073627122        0.8777317481
 H        -9.1974563518        6.7370594669       -0.4246622667
 H       -10.0813668951        7.1446227065        0.9406272486
 H       -14.5995730041        5.0560755657       -0.0768147442
 H       -13.7229689775        4.8277257647        1.4315517717
 H       -14.8929554522        2.4358827180       -0.0717011962
 H       -15.8468828012        3.5189419123        1.0362939713
 H       -14.9430049325       -2.1045947728        1.5749313923
 H       -13.8441426980       -1.9118950121        2.8548644116
 H       -13.2086789492       -3.7829448761        1.3712420457
 H       -11.9475398840       -2.4659651548        1.3276869099
 H       -10.3943578104       -0.6708778618       -2.8405976713
 H        -9.3411824829       -2.1331334605       -3.1090443816
 H        -7.6769826019       -0.3867611252       -2.6631543917
 H        -7.7870053428       -1.4936260327       -1.3224552224
 H        -7.4483879824       -1.2658771042        2.5183289956
 H        -8.1601921314       -0.1545851102        3.7246849626
 H        -6.6233559786        0.2381024891        2.6566827136
 H        -5.7430700761        0.3047647334       -0.7767512431
 H        -6.4945149297       -1.1322314013       -0.0458195488
 H        -5.6448774722        0.2289838118        0.8775511905
 H        -8.4455454433        2.8762460168        0.2011409007
 H        -7.0804478274        2.3691709412       -0.9511016606
 H        -6.7777611791        2.6435553614        0.8060734223
 H       -11.2353781938       -5.2329841270       -1.9326461646
 H       -11.2281838350       -4.8853977955       -0.3203414040
 H        -9.8800415967       -4.4952231984       -1.1601468305
 H       -12.3757648763       -1.9469624170       -3.1041715414
 H       -12.9858708986       -3.6616268847       -3.0034208556
 H       -11.3871641108       -3.2681623968       -3.7770677568
 H       -15.5368388378        1.0032902167        3.9872154577
 H       -13.8181356128        0.4479924581        4.1003194717
 H       -15.0717561408       -0.6323279233        3.6886076475
 H       -16.6626835678        1.2613551849        1.7211438191
 H       -16.3425433823       -0.5336528228        1.4205099630
 H       -16.0601417092        0.6609625463        0.2317303132
 H       -13.5736158455        6.6776893595        0.0353944665
 H       -11.9691465778        7.5923403762       -0.2288479344
 H       -12.3605671062        6.7263759739        1.2339145851
 H       -10.8779876994        4.8964872122       -2.2396732372
 H       -11.3022777993        6.6526521534       -2.1483131267
 H       -12.6229539214        5.3565024641       -2.2589581406
 H        -4.2680385123        5.4201166872        1.6688462741
 H        -5.8002629319        4.9081676484        0.8897888879
 H        -5.7619435996        5.1233974366        2.6318091684
 H        -4.8529346757        8.8712933930        2.5751639168
 H        -3.8497917559        7.4896794631        2.1867229578
 H        -4.8458839271        7.5556172266        3.6158663597
 H        -6.1956308952        9.0358332487       -3.3037056173
 H        -4.4857365067        9.6717919516       -3.5527414734
 H        -5.8112508329        9.8207057205       -4.7760115196
 H        -5.4714515269       13.3311891936       -3.1423588103
 H        -4.8729681527       12.2061246974       -4.5294984947
 H        -4.1621682897       12.1836570683       -2.9421931514
 Na      -11.0215704299        2.0167537402        0.7746408967
