117

 C        -7.9051465942       -3.7826133769       -0.6272042762
 C        -8.6564328198       -2.6380028126       -0.0647299063
 O        -8.0387756793       -1.6154413972        0.1552501664
 C       -10.1845471020       -2.9080484932        0.1738883915
 C       -10.6726755018       -1.8498012102        1.2488353540
 O       -10.7018149967       -0.6601745067        0.9394757219
 C       -11.0447105830       -2.3087278658        2.6055569916
 C       -11.2330119110       -1.1067034209        3.5683886463
 C       -12.2317085785        0.0551987246        3.2216123098
 O       -13.1629734942        0.0346141046        2.4573990858
 C       -12.1314164161        1.3503125913        4.2838196069
 C       -12.1391233419        2.6567770801        3.4364062703
 O       -11.1395501993        3.0023951575        2.7804950451
 C       -13.5399425416        3.3338034272        3.2723890543
 C       -13.3887433134        4.6104397311        2.3600208824
 C       -12.9244577164        5.7661490527        3.2828234811
 O       -12.7542915635        5.6392403389        4.4759314275
 C       -12.5389352234        7.1559408619        2.5240038835
 C       -11.2265768579        6.7993896187        1.7798581543
 O       -11.2653997275        6.5471894876        0.5809871155
 C        -9.8580005047        6.8070746381        2.5709732926
 C        -9.1270465860        5.4843687461        2.6356587251
 C        -8.0854113124        5.1705143047        1.6173485686
 O        -7.7001669768        6.1026597735        0.8624195926
 C        -7.4458835077        3.7965110354        1.3486045164
 C        -8.2069751115        3.2934135392       -0.0477216815
 O        -9.0576761452        3.9815708243       -0.5642839925
 C        -7.6904956025        1.9596087246       -0.6090607718
 C        -8.1513773301        1.7488689539       -2.0373346081
 C        -7.3114530988        2.6213690486       -3.0149228802
 O        -6.1228072728        2.6698588648       -3.0880293391
 C        -8.0852460278        3.3524087571       -4.1223232201
 C        -8.1143192574        4.8318469687       -3.5501728666
 O        -9.0989895396        5.2084963518       -2.9681183937
 C        -6.9226746266        5.7892113645       -3.8094656551
 C        -6.8176789218        6.8250739816       -2.6132819325
 C        -7.8684934474        8.0022295630       -2.7901289831
 O        -8.8982254131        7.9019917523       -2.1892319092
 C        -7.5209697798        9.1076597755       -3.7472182170
 C        -8.2063899180        8.7188000554       -5.1205559553
 O        -7.5905026394        8.0733064984       -5.9484603753
 C        -9.6391181608        9.1970134850       -5.3011343609
 C        -8.0255834312       10.4476759813       -3.1393610317
 C        -5.9648408093        9.2795298930       -4.0045312098
 C        -7.2707566517        3.4655313305       -5.4801892963
 C        -9.5469536641        2.8788738943       -4.3892119818
 C        -5.9705585243        3.9944354692        0.9834349022
 C        -7.7736652469        2.7945866877        2.4991545418
 C       -13.5494932163        7.5342292394        1.4142789826
 C       -12.3474932914        8.1824828518        3.6886620284
 C       -13.4590382669        1.1304801529        5.1057157344
 C       -10.9702641892        1.3868095360        5.2539258015
 C       -10.8818586408       -2.6352803939       -1.1822067810
 C       -10.4455693705       -4.3534295063        0.6065912277
 H        -6.7985609144       -3.5069250015       -0.5724648996
 H        -8.0767335138       -3.9644400120       -1.6588545794
 H        -8.1080885065       -4.6420382056       -0.0800677538
 H       -10.2701603429       -3.0048683940        2.9519158000
 H       -11.8700869918       -2.8875156709        2.6779716444
 H       -10.2480911809       -0.6876419301        3.7810037869
 H       -11.4893904465       -1.4250390608        4.4973586394
 H       -13.9662592096        3.6191388268        4.2079464663
 H       -14.2428376402        2.5730172905        2.8249363369
 H       -14.3324806156        4.8392018483        1.8050948063
 H       -12.6558604169        4.4394779572        1.5596342863
 H        -9.9539227736        7.1022884869        3.6102469351
 H        -9.2535690008        7.6544835203        2.1272826217
 H        -9.7073969934        4.5493907823        2.7244945094
 H        -8.4184148022        5.4702655744        3.5635586331
 H        -7.9866192115        1.1811233706        0.0678652682
 H        -6.5772489393        1.9073666589       -0.5275356855
 H        -9.1264971392        2.1320013632       -2.1124975651
 H        -8.0826939511        0.7729467173       -2.4358366740
 H        -7.0351668936        6.2286676148       -4.8216872109
 H        -5.9458590368        5.2339086266       -3.7543146236
 H        -5.8454037924        7.3318552956       -2.7267648737
 H        -6.9762308312        6.2976161170       -1.7284896317
 H       -10.0873433714        9.0294737554       -6.2366051082
 H        -9.5839465659       10.2721256211       -5.2542033701
 H       -10.3369142227        8.8671815244       -4.4485060181
 H        -9.0095034098       10.2451569979       -2.6620080717
 H        -7.9793478796       11.2778178036       -3.8520998479
 H        -7.4453792246       10.7661570845       -2.2762336260
 H        -5.6158812080        8.3458420394       -4.5223926352
 H        -5.4131007627        9.4656595269       -3.0795157858
 H        -5.7610276793       10.1711579708       -4.6117464535
 H        -7.6838829236        4.1852885700       -6.1853547176
 H        -7.2067419888        2.5142513379       -6.0460206441
 H        -6.2555262753        3.6527096222       -5.2708043986
 H        -9.9807661793        3.5734174580       -5.1558027936
 H       -10.0750077933        2.8237524660       -3.4445186229
 H        -9.5796701511        1.8254181386       -4.8376030525
 H        -5.4303040190        4.1335614232        1.9500718032
 H        -6.0326631734        4.8782872921        0.3419344054
 H        -5.5451617511        3.0736520009        0.6114484464
 H        -7.7004287247        3.3266160155        3.4074962119
 H        -7.1857066104        1.8789104180        2.6576205524
 H        -8.7701629603        2.4786199093        2.2891208531
 H       -14.5425547442        7.7212601096        1.9290087522
 H       -13.5773264645        6.6271093746        0.7949072949
 H       -13.2408601205        8.4195625703        0.8112906092
 H       -11.6703134071        7.8788072640        4.4864723128
 H       -13.3879403836        8.3182339114        4.0884583402
 H       -12.0562456058        9.1360802833        3.3688934920
 H       -14.2682384123        0.7792845402        4.4257404466
 H       -13.7695637235        2.1289494330        5.5557943778
 H       -13.3187332381        0.4013362048        5.8828201014
 H       -10.9285993939        0.4615559404        5.7627183825
 H       -11.2678570254        2.1004234196        6.0053863165
 H        -9.9683798602        1.5389899828        4.8007510632
 H       -10.7135101843       -1.6187507908       -1.5635220952
 H       -11.8999550444       -2.9046259516       -0.9347824737
 H       -10.5624475287       -3.3714524713       -1.9391647676
 H       -11.4223835639       -4.4530619281        1.0630285890
 H        -9.7280648349       -4.6874847341        1.3321081769
 H       -10.4279772752       -5.0518929221       -0.1754958671
 Na       -9.2123983702        6.3274151192       -0.7860524605
