117

 C        -7.7541592059       -3.8412120127       -0.5264055408
 C        -8.6656110305       -2.6710947882        0.1165974206
 O        -8.3084977900       -1.5207111129        0.3527424556
 C       -10.2323925386       -2.9579802339        0.2713997047
 C       -10.6518603557       -1.7780600795        1.2814934008
 O       -10.6284642428       -0.6493002782        0.9073625013
 C       -11.1836159499       -2.1848010243        2.6560827034
 C       -11.1824181517       -1.0208478071        3.6079421323
 C       -12.2136153113        0.0907082631        3.3447061182
 O       -13.1599139499       -0.0048363882        2.6507167593
 C       -12.1019516098        1.3330081211        4.2775983319
 C       -12.1988358908        2.5695323502        3.2478003573
 O       -11.1969737130        2.9369366310        2.6513519331
 C       -13.4901270137        3.3001871591        3.1431841667
 C       -13.3010573735        4.6325674157        2.2878950820
 C       -12.8503857689        5.7563983030        3.2032468814
 O       -12.7065568520        5.5497917781        4.3879016611
 C       -12.5108307677        7.1191878417        2.5433312328
 C       -11.1519272705        6.8128878681        1.7378022588
 O       -11.1239472506        6.5948841914        0.5273455860
 C        -9.8964537789        6.7095637292        2.6606000388
 C        -9.2868998817        5.3369230259        2.5984292040
 C        -8.1388658499        5.2571512122        1.5333824980
 O        -7.6862167593        6.1584457895        0.8659594814
 C        -7.5641253000        3.8611796524        1.2863838247
 C        -8.1658469651        3.2432808595       -0.0825579881
 O        -9.0257773873        3.8701189786       -0.6558430075
 C        -7.6561241074        1.9518699067       -0.6065236345
 C        -8.1684835759        1.7650623075       -2.0610973509
 C        -7.3302254155        2.5013869432       -3.1808215541
 O        -6.1309439593        2.5870492824       -3.0416837740
 C        -8.0963534257        3.4935407782       -4.1945744269
 C        -8.1838902130        4.8924765650       -3.5613743893
 O        -9.1760716782        5.1709076374       -2.8913076990
 C        -6.9685101877        5.7465020627       -3.7521712316
 C        -6.7067082615        6.7921560517       -2.6803719302
 C        -7.7643144565        7.9798279555       -2.8328457399
 O        -8.8383903992        7.9424876072       -2.2623071159
 C        -7.4969778242        9.0969802986       -3.7386244980
 C        -8.1748199089        8.7991929294       -5.0905648968
 O        -7.6063476195        8.0948382707       -5.9053474486
 C        -9.5993373024        9.2728543146       -5.3603165883
 C        -8.0528332219       10.4607838864       -3.1996466219
 C        -5.9599584130        9.3115648073       -4.0517436108
 C        -7.2650843934        3.4259818272       -5.4959192349
 C        -9.5561703447        2.9777754827       -4.5886879733
 C        -5.9897759692        3.9958388133        1.2373191883
 C        -7.8160336642        2.7556774663        2.4160043087
 C       -13.6267015129        7.5688227708        1.6141767217
 C       -12.2502400681        8.2346087214        3.6090357090
 C       -13.4236019685        1.2229585416        5.0710656568
 C       -10.8742473503        1.3454045179        5.2208819325
 C       -10.9519835711       -2.6793894169       -1.0739839064
 C       -10.4681591926       -4.3775564930        0.7834846082
 H        -6.6866943417       -3.6804128527       -0.4345975880
 H        -7.8817727181       -3.8677824399       -1.6250035000
 H        -7.9964133238       -4.8254028861       -0.0858517512
 H       -10.6034659102       -2.9764464472        3.0709720083
 H       -12.1653341371       -2.6130392123        2.7048136531
 H       -10.1778349920       -0.5991000160        3.5690800188
 H       -11.2350398850       -1.3538268587        4.6284778982
 H       -13.9252615548        3.5176677444        4.1332216625
 H       -14.2170979105        2.6783021070        2.5969099856
 H       -14.2752142752        4.7922398990        1.8210103616
 H       -12.6626965728        4.5200115746        1.5095781715
 H       -10.0587034688        6.9479439846        3.7287217138
 H        -9.1430668079        7.4575975445        2.3489101986
 H        -9.9275046563        4.3998150444        2.4312696361
 H        -8.7077692780        5.0797261983        3.4847288289
 H        -8.1352921949        1.1403410353       -0.0134179921
 H        -6.5840582068        1.7691225984       -0.4553032873
 H        -9.2299355067        1.9369689078       -2.1995656548
 H        -7.9253352582        0.7296372707       -2.2784589463
 H        -7.1775595792        6.2610910696       -4.7178780016
 H        -6.0016450476        5.1584136146       -3.8718386082
 H        -5.7694609020        7.2523880912       -2.9423039645
 H        -6.7792410752        6.3258726781       -1.6789862014
 H        -9.9731362996        8.9729239007       -6.3378269343
 H        -9.6795926084       10.3619638042       -5.3110407838
 H       -10.2844625837        8.8629649935       -4.5767113731
 H        -9.0715809360       10.4493208386       -2.8363775299
 H        -7.8195065107       11.2150058860       -3.9022551739
 H        -7.4733587727       10.6968606230       -2.3142286193
 H        -5.6922348962        8.3938509270       -4.5931377352
 H        -5.3089832379        9.4716078480       -3.1717671040
 H        -5.8371869760       10.1864763689       -4.6503803421
 H        -7.6854710604        4.1198941949       -6.2690452189
 H        -7.1923860143        2.4189496089       -5.9224188361
 H        -6.2190160793        3.6768686748       -5.3498253452
 H        -9.9033790039        3.5894533796       -5.4525881746
 H       -10.1888425391        3.0917218660       -3.6304489961
 H        -9.6070121599        1.9029532357       -4.8997996755
 H        -5.6478641283        4.2639110237        2.2521528922
 H        -5.8815550653        4.7928621617        0.5280523357
 H        -5.5092923079        2.9961263419        1.0684781386
 H        -7.2930920614        3.1596132732        3.2975641065
 H        -7.2016559630        1.9213611899        2.2166056034
 H        -8.8156014008        2.3536386627        2.5377966592
 H       -14.5575987763        7.8935092296        2.2142869369
 H       -13.8485415991        6.6886938942        0.9857551322
 H       -13.2238606992        8.3537471019        0.9448100070
 H       -11.6069592559        7.9357727004        4.4883302504
 H       -13.2509348903        8.5340129008        4.0038240300
 H       -11.7850394003        9.1032184020        3.1934653047
 H       -14.3182348217        1.4976938346        4.4581526051
 H       -13.3480569504        1.9389477682        5.9406450488
 H       -13.5673744341        0.1163247177        5.4028572209
 H       -10.8849354336        0.4653339598        5.8600510689
 H       -10.9740766085        2.2532352602        5.8701282125
 H        -9.9256116903        1.2793037949        4.6448013535
 H       -10.4507604065       -1.7957990221       -1.4759015477
 H       -11.9923601404       -2.5856953447       -0.8655513080
 H       -10.8250104783       -3.4964842947       -1.8059645662
 H       -11.4990916686       -4.5096758368        1.0040377149
 H        -9.8891871150       -4.6795752183        1.6509406126
 H       -10.2404920835       -5.1115933888       -0.0151550339
 Na       -9.2817722073        6.3794731409       -0.7612338874
