117

 C        -7.7424009071       -3.7655942629       -0.2220825699
 C        -8.6087208090       -2.6392871204        0.3270122213
 O        -8.2468483741       -1.5173266495        0.5501374693
 C       -10.2529421586       -2.9161199035        0.4139069393
 C       -10.7837073826       -1.8136456225        1.3491136730
 O       -10.6685277659       -0.6472609889        0.9654518362
 C       -11.3945937748       -2.1566612966        2.7039033578
 C       -11.1265406944       -0.9643092110        3.6413858859
 C       -12.2325648779        0.0046462976        3.5364530049
 O       -13.1953785699       -0.2205516657        2.7937988303
 C       -12.1609012769        1.3690940575        4.3339144200
 C       -12.2118022733        2.4810534799        3.2155452236
 O       -11.1747353355        2.6564894771        2.5999527661
 C       -13.5017637464        3.2403832789        2.7674246852
 C       -13.2999749310        4.6994100867        2.2173153722
 C       -12.8174105789        5.7862452913        3.1848104232
 O       -12.5244557467        5.4819111462        4.3098759212
 C       -12.4865568522        7.2190645838        2.5881221758
 C       -11.1366369955        6.9216884781        1.7717822034
 O       -11.0975352215        6.8496699344        0.5641681459
 C        -9.9182537957        6.6135520517        2.6373108795
 C        -9.4771449646        5.1810984032        2.4986733094
 C        -8.1934256950        5.1156432458        1.5468672991
 O        -7.7605578362        6.1391520715        1.0002534004
 C        -7.4236560226        3.7223242461        1.3047273556
 C        -8.0180740584        3.2513114595       -0.1109855790
 O        -8.9164999792        3.8584536204       -0.6826203712
 C        -7.6599192029        1.8797635073       -0.7664129300
 C        -8.2415127499        1.6518838832       -2.2153960882
 C        -7.4898167226        2.4730276979       -3.2481457488
 O        -6.3015888461        2.6053670707       -3.1206567414
 C        -8.1521705409        3.4375876772       -4.2945057389
 C        -8.1356446628        4.7883754785       -3.5775289719
 O        -9.1246218686        5.1381527950       -2.9890951939
 C        -6.8808386555        5.7397430014       -3.6894154788
 C        -6.7602131968        6.8867588541       -2.6687553757
 C        -7.7159265112        8.0498814266       -2.9037336131
 O        -8.7169898741        8.1975105200       -2.1991512497
 C        -7.3397014109        9.2505408728       -3.8718159449
 C        -8.1601348739        8.8234186000       -5.2211856217
 O        -7.6220039078        8.0137587422       -5.9420460149
 C        -9.5083305400        9.3789895470       -5.4591391111
 C        -7.9321122446       10.5645428080       -3.1854024218
 C        -5.9051483894        9.5088318018       -4.1898973372
 C        -7.2429322915        3.3927846130       -5.5283788731
 C        -9.5842544169        2.9464050419       -4.6764071919
 C        -5.9221840719        3.9181813736        1.2882442447
 C        -7.9959485884        2.6589997848        2.2894292420
 C       -13.5879673564        7.5990128417        1.5640994214
 C       -12.2234531676        8.2888390234        3.7019167942
 C       -13.3033449765        1.4684328976        5.4408340766
 C       -10.8291080421        1.6747479400        5.0370461764
 C       -10.9817003684       -2.8760381155       -0.9879367310
 C       -10.5848571177       -4.3642736540        1.0258254524
 H        -6.6146653179       -3.6556424894       -0.1721908865
 H        -7.9396843059       -3.8183911513       -1.2862018033
 H        -8.0165276203       -4.6829973871        0.2504479001
 H       -11.0149577534       -3.1392112635        3.1486057125
 H       -12.5179202022       -2.3410540283        2.6389041447
 H       -10.1457397623       -0.4864182181        3.2973846839
 H       -10.9281614313       -1.2822455163        4.7123689734
 H       -14.2681285659        3.2950687014        3.5357079902
 H       -13.9519176431        2.7345191132        1.8988882053
 H       -14.2598408764        4.8733561714        1.7353395100
 H       -12.5158789316        4.6826955369        1.3445031022
 H       -10.0970866578        6.8786568872        3.6668900327
 H        -9.1029320751        7.2790674268        2.3537115370
 H       -10.2081893177        4.6109941438        2.0512724581
 H        -9.1313535728        4.6270520709        3.3672858612
 H        -8.1142408573        1.0615383412       -0.1975024452
 H        -6.5759041734        1.7009955308       -0.6701539759
 H        -9.2737338511        2.0814687332       -2.2272116557
 H        -8.2611068028        0.5403249944       -2.4448655900
 H        -6.7727755223        6.1279107979       -4.6968661294
 H        -6.0329543014        5.1631883108       -3.4690706456
 H        -5.7503536966        7.3422267515       -2.6813782065
 H        -7.0903819540        6.4624383561       -1.7265796379
 H        -9.9401117532        8.9417031858       -6.3468754334
 H        -9.4653038428       10.4747123204       -5.5040116923
 H       -10.1734328144        9.1447436255       -4.6128686890
 H        -9.0003641347       10.3953938823       -2.9915036896
 H        -7.8826915490       11.4074706437       -3.9118179534
 H        -7.4249978318       10.7943327973       -2.2553362906
 H        -5.5405883883        8.7024434895       -4.7921382610
 H        -5.3644395328        9.5193097652       -3.2747425479
 H        -5.8137700019       10.5123676983       -4.6080341512
 H        -7.3802608785        4.3005689659       -6.1142666045
 H        -7.2239556525        2.4588851571       -6.1204913997
 H        -6.1959749866        3.4914935929       -5.1677360463
 H        -9.8425228265        3.3832827469       -5.6267273619
 H       -10.2370772245        3.2705206850       -3.9539804167
 H        -9.6394742435        1.8892657323       -4.8126844961
 H        -5.6568225320        4.4561032271        2.1835331759
 H        -5.7563928414        4.5328352448        0.4151618971
 H        -5.4906930144        2.9698988160        1.3300776703
 H        -7.6671132725        2.7847649717        3.2982784541
 H        -7.7594817429        1.5731942062        2.0296017419
 H        -9.0594863643        2.7196878707        2.0579966512
 H       -14.5438734403        7.3647866070        1.9646290823
 H       -13.4548262312        6.9939915757        0.6801571972
 H       -13.3305475301        8.5816306662        1.1942168739
 H       -11.8636064137        7.8030854860        4.5894298366
 H       -13.0754086507        8.9011770659        3.9902591348
 H       -11.3567429562        8.9072302436        3.4150460446
 H       -14.2539735186        1.7725525190        5.0204186659
 H       -13.0624819850        2.2421788867        6.1595836630
 H       -13.4000084812        0.5273477472        5.8141870898
 H       -10.6536613723        0.9046314505        5.8036976457
 H       -10.9389844494        2.6634195475        5.4518017843
 H        -9.9636882261        1.6470336441        4.3598870878
 H       -10.6883296391       -1.9961050516       -1.5179065292
 H       -12.0518982905       -3.0468407949       -0.8402395680
 H       -10.6035705223       -3.6990746753       -1.5542747614
 H       -11.7011061586       -4.5782735484        1.1099283220
 H       -10.1564868328       -4.5109533234        2.0437201448
 H       -10.1533783062       -5.1592963621        0.4215454699
 Na       -9.4194682074        6.1997649982       -0.8402406561
