117

 C        -7.7676604905       -3.8885629369        0.0119268283
 C        -8.6703138090       -2.7187356410        0.4688652802
 O        -8.1738628136       -1.6369130942        0.6795881929
 C       -10.2665566890       -3.0182309423        0.5521036561
 C       -10.8640116529       -1.7884655554        1.4203152718
 O       -10.9301177759       -0.6846437313        0.9541916642
 C       -11.2591265610       -2.1257031977        2.9503939901
 C       -11.3196508546       -0.8742708181        3.8989475970
 C       -12.3825922690        0.2046302968        3.6809236518
 O       -13.5212038109       -0.0462207296        3.2773683859
 C       -12.1571621962        1.6405785942        4.3601371871
 C       -12.2252345630        2.6146209306        3.1333994170
 O       -11.2812046976        2.7567112339        2.3636607368
 C       -13.5426333136        3.2315347378        2.7757416339
 C       -13.2933073465        4.5977782078        2.1365204776
 C       -12.7454157889        5.6424963221        3.0833552759
 O       -12.3975258580        5.4221786184        4.2193281589
 C       -12.4847466526        7.0999528471        2.5476434027
 C       -11.1069672201        6.9494357389        1.7916530850
 O       -11.0067548467        7.0531989309        0.5651081917
 C        -9.8172925268        6.6158386399        2.5966993805
 C        -9.4391011664        5.1017858358        2.4211511902
 C        -8.1760312283        4.9437456372        1.5291545766
 O        -7.6790812039        5.8746197586        0.9475473097
 C        -7.6848284060        3.4764384331        1.2979649728
 C        -8.2170038967        3.1405016195       -0.1604900369
 O        -8.8111998717        3.9599657604       -0.8496171282
 C        -7.7372803435        1.8520354211       -0.8151362054
 C        -8.2811724869        1.7898898505       -2.2253605829
 C        -7.3926471463        2.5910093656       -3.1888133866
 O        -6.2002973589        2.5511826478       -3.0443326250
 C        -8.0904380012        3.4959115037       -4.3350315861
 C        -8.1645142545        4.9633874527       -3.7487063037
 O        -9.2218413595        5.2913202809       -3.1900911247
 C        -6.8387590592        5.7539882648       -3.7837427179
 C        -6.7840826098        6.8953756437       -2.7507218777
 C        -7.6644759865        8.0994040144       -2.8476195019
 O        -8.6201389076        8.1277188370       -2.0929692759
 C        -7.3671112265        9.2984066277       -3.8336498265
 C        -8.1232808498        8.8239362228       -5.1846486635
 O        -7.6193168365        7.9787998650       -5.8816295791
 C        -9.4303880095        9.5219915182       -5.5896929016
 C        -7.9563391720       10.6585573646       -3.3852611008
 C        -5.8422439964        9.2891058217       -4.1784824292
 C        -7.3197598619        3.4185843445       -5.6472211827
 C        -9.5053927329        3.0055012076       -4.6275782396
 C        -5.9618426924        3.6444347130        1.1109765391
 C        -7.9013738760        2.3649140437        2.3403735883
 C       -13.6024527035        7.7401875695        1.6024740126
 C       -12.4696404074        8.0578898324        3.7491368861
 C       -13.2512649641        1.8137471975        5.4367102453
 C       -10.7516272911        1.7219887254        5.0214981921
 C       -10.7552347961       -2.9176931632       -0.9799262353
 C       -10.3953559991       -4.4276123381        1.1508162574
 H        -6.8292471108       -3.5418160233       -0.1661068662
 H        -8.0924716344       -4.2887457835       -0.9481152235
 H        -7.6356034133       -4.6775595389        0.7829146979
 H       -10.6553181966       -2.8027999502        3.4543946722
 H       -12.2138403782       -2.6181971163        2.8726030786
 H       -10.3338723524       -0.5590609196        3.9192763270
 H       -11.5864529705       -1.2683421775        4.8560905559
 H       -14.1971926304        3.2556879408        3.6661605226
 H       -13.9463659514        2.5220541719        2.0485744561
 H       -14.1977984725        5.0595332802        1.6537421997
 H       -12.5970007942        4.3939472242        1.3755613239
 H        -9.9356533494        6.8061951748        3.6905892847
 H        -8.9573618447        7.2416380655        2.3184159082
 H       -10.3058633135        4.4413911908        1.9677325407
 H        -9.1230063826        4.6020698944        3.3532459598
 H        -8.0129860639        0.9636970613       -0.2105332708
 H        -6.6532712295        1.8969818553       -0.8425380877
 H        -9.2690165218        2.1980040754       -2.2387273025
 H        -8.3188000420        0.8279324252       -2.6551064525
 H        -6.6239139296        6.2845410042       -4.7223787395
 H        -5.9942794253        5.0344467777       -3.5609424571
 H        -5.7791535482        7.2897222398       -2.7406124108
 H        -7.0193716904        6.5524301110       -1.7196893973
 H        -9.8320282638        8.8659606469       -6.3991556472
 H        -9.2081139711       10.5480077695       -5.8760332622
 H       -10.1907319962        9.6159537609       -4.8639195571
 H        -9.0158816095       10.6685184544       -3.0716364130
 H        -7.9391802458       11.3276344510       -4.2576903547
 H        -7.2571103155       11.0048323827       -2.5778324333
 H        -5.5658125132        8.3302423767       -4.6274240687
 H        -5.1787879358        9.5094553370       -3.2969099834
 H        -5.7711924924       10.0807200366       -4.9277157828
 H        -7.4683821322        4.2447543312       -6.3301478362
 H        -7.6287709708        2.4733165394       -5.9976726769
 H        -6.2379519490        3.3842438268       -5.5499477389
 H       -10.0045826924        3.4735410754       -5.4864597430
 H       -10.2395613307        3.1808208277       -3.7787714477
 H        -9.3576265405        1.9665506515       -4.8898039500
 H        -5.5398710622        3.8428512590        2.0896028509
 H        -5.7754730005        4.4428943754        0.4123912886
 H        -5.7164911347        2.6317960576        0.7082716184
 H        -7.8672912021        2.7665845593        3.3795750146
 H        -7.0674590879        1.7420589950        2.2224761726
 H        -8.7602026807        1.7376895670        2.1174500503
 H       -14.5385476139        7.3723408693        1.9895142161
 H       -13.5396578078        7.5035361872        0.5480898578
 H       -13.2967780445        8.7549979839        1.5952308092
 H       -12.1750746839        7.6286959046        4.6930885681
 H       -13.4382109521        8.4455771190        3.8941863751
 H       -11.7632968701        8.8982843194        3.5788704722
 H       -14.0483718970        1.1404844718        5.2057136432
 H       -13.6852715503        2.7522509603        5.3216015093
 H       -12.8132117459        1.4909943695        6.4130608539
 H       -10.6192165169        0.8508160842        5.6380629794
 H       -10.5761198726        2.6716581207        5.4943358715
 H       -10.0437967712        1.6881753525        4.2407114506
 H       -10.8810224403       -1.8353621428       -1.1640296141
 H       -11.6743754206       -3.4864476643       -1.1234529979
 H        -9.9810290779       -3.2811638948       -1.6820692075
 H       -11.2796858867       -4.6751444912        1.6538956143
 H        -9.5930155838       -4.5186210884        1.8579075015
 H       -10.2127267146       -5.1740098074        0.3608530692
 Na       -9.3985673175        6.2967173676       -1.0187051215
