117

 C        -7.7148123108       -3.9277271590        0.3305204295
 C        -8.5710828533       -2.6723443701        0.7706902462
 O        -8.0965972580       -1.5615069518        0.9015448705
 C       -10.2049763467       -2.9862377977        0.7712791814
 C       -11.0623281726       -1.8242764098        1.6209894487
 O       -11.2089412075       -0.7571160169        1.0962069867
 C       -11.5166468759       -2.0597919789        3.0858885973
 C       -11.2656526853       -0.6899170836        3.9086664813
 C       -12.4452137487        0.2715447513        3.9540761384
 O       -13.5372983905       -0.1692990382        3.6943957626
 C       -12.1673181168        1.8161788773        4.3997508057
 C       -12.3698057394        2.6149285190        3.0825244717
 O       -11.3707287479        2.8106546616        2.3716245539
 C       -13.7002516450        3.1249162008        2.4918272717
 C       -13.5241618322        4.5542895002        2.0229554606
 C       -12.7211823719        5.4888707193        2.9603939677
 O       -12.2449909343        5.0389760996        3.9856178195
 C       -12.3609914888        6.9147962671        2.4761099074
 C       -11.0004081114        6.8207014929        1.7168271053
 O       -10.9410204416        7.0440953172        0.4921767752
 C        -9.7582661594        6.5165914308        2.5543762214
 C        -9.2194529675        5.0696706548        2.4765770582
 C        -8.1749795723        4.9267888923        1.4673638042
 O        -7.7203356856        5.8471139710        0.7788916961
 C        -7.6927698682        3.4995296231        1.0977102352
 C        -8.2380641940        3.0741945851       -0.3724751259
 O        -8.8158810577        3.8975411835       -1.0193822820
 C        -8.0843022782        1.6766553102       -0.9050924030
 C        -8.2195787926        1.6180059683       -2.3886383692
 C        -7.4776314436        2.7491583548       -3.1753566291
 O        -6.2951378799        2.8794829086       -3.0482408443
 C        -8.1885478705        3.6323642584       -4.3402828295
 C        -8.1712789373        5.1166754441       -3.8624254151
 O        -9.1822051368        5.5748851548       -3.2964251289
 C        -6.7705833954        5.7511567947       -3.8012530502
 C        -6.7943981648        6.8182146322       -2.6857213820
 C        -7.6711216582        8.0524420648       -2.8480343836
 O        -8.6037342903        8.2673136247       -2.1270171421
 C        -7.3563032086        9.1584361219       -3.9369555233
 C        -8.0442278826        8.7444911484       -5.3045771885
 O        -7.6913509774        7.7788586356       -5.9637544443
 C        -9.2504027989        9.6056635487       -5.6884828663
 C        -7.7778505348       10.4981216784       -3.3263303806
 C        -5.8019022241        9.2675148603       -4.2936638742
 C        -7.2560110622        3.4668588756       -5.5915923494
 C        -9.5850848179        3.1746305458       -4.6958679233
 C        -6.1197287179        3.4687327979        1.0943233546
 C        -8.1255941591        2.3797918178        2.1038604364
 C       -13.3340711589        7.5994763076        1.4598323532
 C       -12.3110706032        7.8559853783        3.7483518367
 C       -13.1135844202        2.1833715510        5.5535878488
 C       -10.7272012073        1.9801333390        4.8555891080
 C       -10.6445304209       -2.9030251768       -0.6794017265
 C       -10.5406599179       -4.3251422585        1.4255930721
 H        -7.0487507107       -3.7243871730       -0.4714784237
 H        -8.3320605648       -4.7901313743        0.0015768610
 H        -7.0533735360       -4.1979162750        1.1755670222
 H       -10.9386065662       -2.9349745938        3.5587540715
 H       -12.6108917792       -2.2478591760        3.1755646877
 H       -10.3283665307       -0.2550036427        3.4802736625
 H       -11.1656823642       -0.9918025301        4.9681616154
 H       -14.5090721760        3.0452099416        3.2047436689
 H       -13.8958657680        2.4822061916        1.6127047672
 H       -14.5757459887        5.0132494915        1.6953431852
 H       -12.9036848530        4.4792023341        1.1049854620
 H        -9.7987227603        6.8389060644        3.5717063377
 H        -8.9934368144        7.1200977632        2.0420160618
 H        -9.9495900299        4.3111755700        2.2782787150
 H        -8.7719801346        4.8571727952        3.4551086449
 H        -8.8386878522        1.0185192422       -0.5073139351
 H        -7.0776476445        1.3037927940       -0.6124196633
 H        -9.2886630660        1.5428287449       -2.7056408531
 H        -7.8304192661        0.6057321876       -2.6438275353
 H        -6.5729194225        6.1867843428       -4.7503010837
 H        -5.9678105099        5.0522509885       -3.5508753868
 H        -5.7169587612        7.1206910453       -2.5206102421
 H        -7.0206191130        6.3865340513       -1.7377769864
 H        -9.8634880403        9.0824270099       -6.4185175821
 H        -8.9343144716       10.5913292452       -5.9425657961
 H        -9.9195576072        9.8237265595       -4.8371658241
 H        -8.8331690355       10.5466579379       -3.1223072605
 H        -7.5975923750       11.2981250544       -3.9936297112
 H        -7.1023325804       10.5846757388       -2.4911774225
 H        -5.5071819327        8.4212693407       -4.9077948302
 H        -5.2397801501        9.2230966157       -3.3740760904
 H        -5.6564339218       10.1493157183       -4.8364318715
 H        -7.7477199824        4.1271245931       -6.3711617893
 H        -7.3276629933        2.4260189610       -5.9236357957
 H        -6.2507475526        3.8544405023       -5.5318421935
 H        -9.8645612910        3.7374701125       -5.5361640986
 H       -10.3275377669        3.4844951018       -3.9527468199
 H        -9.6296821943        2.1630921683       -4.9638775651
 H        -5.9513709150        3.6521424586        2.1311648627
 H        -5.8070730967        4.3167286061        0.5632331606
 H        -5.7709995171        2.5488608948        0.6447703719
 H        -7.3912587393        2.5106563713        2.9299605303
 H        -7.9027506984        1.4365605722        1.6211943853
 H        -9.1280090274        2.3931126538        2.5640568265
 H       -14.3133615363        7.6797790840        1.9835183969
 H       -13.4554710235        6.9277209909        0.6383217824
 H       -12.7987853716        8.4756075258        1.1306021497
 H       -11.3921468135        7.8931661287        4.3512042209
 H       -13.1074179090        7.5983271536        4.4646906557
 H       -12.5314828147        8.8480840413        3.4353469041
 H       -13.9640607134        2.6539521890        5.1644015360
 H       -12.5693728258        2.9149127175        6.1480536657
 H       -13.3496315089        1.2653792851        6.1541063920
 H       -10.5845416412        1.4287503727        5.7679095239
 H       -10.5378172606        3.0685069150        5.0069378771
 H        -9.9889540344        1.7237530429        4.0651623536
 H       -10.3015852667       -1.9588790094       -1.1067168468
 H       -11.7100602722       -2.8341500767       -0.6934333209
 H       -10.2937728610       -3.7956985078       -1.2132358785
 H       -11.6252135219       -4.4880275343        1.3746038237
 H       -10.2390984076       -4.3660580248        2.4920741438
 H       -10.0360074847       -5.1359474101        0.8492120828
 Na       -9.2060570850        6.3622796354       -0.8473328924
