117

 C        -8.2846769590       12.6123244413       -2.6210847268
 C        -7.6404818217       11.2679558608       -3.0507287164
 O        -8.2274006109       10.3447514616       -3.4653930882
 C        -6.0669852876       11.1181432454       -2.8656447975
 C        -5.7194330155       11.0916393036       -1.3765632496
 O        -6.0956627712       11.9361337493       -0.6264410171
 C        -5.0459916607        9.9109860686       -0.8406460164
 C        -6.1661094307        8.8252148374       -0.4547864083
 C        -5.5861937850        7.5410680330        0.1113759924
 O        -5.1048686516        6.7213176575       -0.7002923980
 C        -5.8027668358        6.9568184816        1.5592151792
 C        -7.3257905679        7.1907620444        1.7819450786
 O        -7.9237924370        8.2156774253        2.0101661920
 C        -8.1733037115        6.0356285891        1.2100023493
 C        -9.4122794704        6.4660756781        0.4540786467
 C       -10.4458008072        5.2930838413        0.4332347337
 O       -10.2205718656        4.2468707472        1.0420079380
 C       -11.8320076741        5.4114384016       -0.4435017935
 C       -12.6952293986        4.1374796647       -0.2052389037
 O       -12.3945684508        3.0555384195       -0.7687923231
 C       -13.9874159490        4.3784846801        0.6769513346
 C       -14.7297640879        3.0474123734        0.7573704117
 C       -14.0139080383        2.1048947134        1.7647660232
 O       -13.1783702402        2.5953917359        2.4983959034
 C       -14.6275178328        0.6769198993        1.9863357200
 C       -13.4727608872       -0.4595693807        1.5346037316
 O       -12.3809585527       -0.1231346412        1.1724095165
 C       -13.8143266213       -1.9303412783        1.6651116753
 C       -12.7969018555       -2.8410613151        1.1297165826
 C       -12.9378544571       -2.8205959281       -0.4492233373
 O       -13.9877393023       -2.6100265933       -0.9854065739
 C       -11.7204647879       -3.1235273966       -1.2968359898
 C       -10.5400500091       -2.0429680320       -1.0108778368
 O       -10.3549193937       -1.5707900691        0.0716947880
 C        -9.6806151035       -1.5419852197       -2.2418983844
 C        -8.3572447399       -0.9674393289       -1.7433647042
 C        -8.8076370802        0.2694495652       -0.8066453769
 O        -9.7529916354        0.9212881813       -1.0363606593
 C        -7.7371351616        0.7616728454        0.2823194057
 C        -8.2513406444        0.5813354101        1.7332094937
 O        -9.3954093395        0.9318015008        2.0078183768
 C        -7.3476983206       -0.2910760411        2.6598207016
 C        -6.3932220045        0.0597445934        0.0969888120
 C        -7.5824102934        2.3255605356       -0.0029858863
 C       -10.8936858089       -4.4924108637       -1.2278010994
 C       -12.2745185490       -2.9593888910       -2.7936085112
 C       -14.6834611101        0.5300330499        3.5056578679
 C       -16.0653561766        0.4280970111        1.4360736462
 C       -12.5172445205        6.7141401987        0.2221695757
 C       -11.6556783479        5.4577363199       -1.9715242778
 C        -5.3765416888        5.4570752367        1.6434460758
 C        -4.8929566738        7.8379428874        2.3745305684
 C        -5.6445452008        9.8639124526       -3.6242514304
 C        -5.2534859474       12.2689121700       -3.6304910902
 H        -8.2365520643       13.3243239774       -3.4066651132
 H        -7.6935988301       12.9551753922       -1.8420942758
 H        -9.2970852547       12.1974648309       -2.3850688028
 H        -4.3218654216       10.1564119308        0.0533662214
 H        -4.3891387628        9.5106779083       -1.5588213356
 H        -6.7467663826        8.3917101989       -1.2231188970
 H        -6.8038831053        9.3491981735        0.2679493563
 H        -8.5467274873        5.4020176480        2.0296133166
 H        -7.5600451285        5.3924242236        0.5554399608
 H        -9.1021969476        6.6984707022       -0.5427333659
 H        -9.8362770610        7.4369057100        0.8932191602
 H       -14.5750996163        5.0547996202        0.0446540419
 H       -13.7034681801        4.8500890446        1.5897029871
 H       -14.8783466668        2.4751536878       -0.1466371800
 H       -15.6952404159        3.3663361559        1.2525986219
 H       -14.7289289410       -2.2555232642        1.2036275506
 H       -14.0353898331       -1.9728265571        2.7060629553
 H       -13.3614145466       -3.7360613267        1.3275560099
 H       -11.7778926449       -2.6876283309        1.4654291840
 H       -10.3180151829       -0.7381767427       -2.6606939413
 H        -9.4081840159       -2.2588735692       -2.9708065940
 H        -7.8348038074       -0.5486618465       -2.6529893133
 H        -7.6066455885       -1.6275433943       -1.2716665291
 H        -7.1083041534       -1.2945995191        2.2728254097
 H        -7.9242521078       -0.4754754804        3.4644670053
 H        -6.3702457018        0.1929935650        2.9328659730
 H        -6.0885172891        0.1511181639       -0.9429693162
 H        -6.4476041182       -1.0336626411        0.2785324185
 H        -5.5583041710        0.5315694263        0.5745768251
 H        -8.5769826648        2.7492617217       -0.1741300464
 H        -7.0412633405        2.2877705409       -0.9858435359
 H        -7.1440307106        2.9265924486        0.7550824512
 H       -11.0451156331       -5.0849189958       -2.1110163254
 H       -11.1762238873       -5.1346256317       -0.4519301712
 H        -9.7929255758       -4.4050688160       -1.0840560750
 H       -12.9773849853       -2.1572384892       -2.8929576302
 H       -12.6341172599       -3.9990415297       -3.0685654536
 H       -11.3997119628       -2.6779962838       -3.4573019459
 H       -15.5009855940        1.1508375686        3.8272606328
 H       -13.7621745660        0.8278348846        4.0027899550
 H       -14.8503738965       -0.4767029028        3.8506813943
 H       -16.7572032619        1.1485268337        1.8621270370
 H       -16.3135803192       -0.5804498176        1.5814389556
 H       -16.2903012297        0.4607877210        0.3253968142
 H       -13.6266020035        6.7452446262        0.0090558365
 H       -11.9746265676        7.5659447676       -0.1731340690
 H       -12.4311593328        6.7298418797        1.3010740078
 H       -11.2720512330        4.4451440825       -2.2746997393
 H       -10.9015902395        6.2493271389       -2.2158721043
 H       -12.6198751556        5.6477404513       -2.4253489473
 H        -4.3216091047        5.4191772774        1.3914609253
 H        -5.9105301133        4.8619845666        0.8864408075
 H        -5.5765354748        5.0175108050        2.6347578455
 H        -5.1378655687        8.9000018523        2.3210150208
 H        -3.8016706204        7.7459733226        2.1186413583
 H        -4.9323209250        7.7289289925        3.4429747296
 H        -6.2773662271        8.9990586450       -3.4467374625
 H        -4.6135006446        9.7866106968       -3.7428590563
 H        -6.0013450085       10.0498217256       -4.6381460735
 H        -5.3834196929       13.2830504398       -3.2874802708
 H        -5.4923775415       12.1427561380       -4.6771272813
 H        -4.1755001976       12.0441011831       -3.5112927424
 Na      -11.1027464291        2.0913343259        0.8175925989
