117

 C        -7.7820410117       -3.7868871243        0.6808014346
 C        -8.7284809460       -2.6249664972        1.0529345713
 O        -8.4084717846       -1.4681265648        1.2340968922
 C       -10.3335205844       -2.9402745890        0.9633723191
 C       -11.0141146217       -1.7372295742        1.6150460399
 O       -11.1154044178       -0.6713040652        1.0336771413
 C       -11.4199883584       -1.8753570365        3.0793453475
 C       -11.1761228478       -0.5967410417        3.8958898650
 C       -12.3672273513        0.2904519806        4.0321015928
 O       -13.4942696629       -0.0876851122        3.9572014402
 C       -12.1304712774        1.8389725100        4.3688453302
 C       -12.2963391235        2.5297788732        2.9592826830
 O       -11.3299964466        2.7246081920        2.2787403357
 C       -13.6922556709        3.0232941980        2.5703390708
 C       -13.6136122397        4.5058823043        2.0114743421
 C       -12.6434402881        5.3331948632        2.7633586283
 O       -12.2339570705        4.9976374996        3.8575640902
 C       -12.3212184409        6.8516333906        2.4094120209
 C       -10.9018284453        6.7934722247        1.7765243634
 O       -10.8665831190        6.6568070082        0.5789328608
 C        -9.6295150064        6.6401280266        2.5936442711
 C        -9.1266919029        5.1314333559        2.5528367163
 C        -8.1464440139        4.8950244104        1.3230365887
 O        -7.5572243343        5.7991924034        0.7657619628
 C        -7.7381878895        3.4275777129        0.8960818479
 C        -8.2864298893        3.1128545857       -0.5007503329
 O        -8.8438957676        3.9814144019       -1.1644882201
 C        -7.9928141336        1.6772787502       -1.0436646584
 C        -8.4360349563        1.6493103518       -2.6096694328
 C        -7.5783990165        2.7305802407       -3.2554248720
 O        -6.4932186068        3.0686009495       -2.7601591776
 C        -8.1781145868        3.6220267675       -4.3460399876
 C        -8.1114237521        5.0772023840       -3.7015424134
 O        -9.1150579134        5.4843224866       -3.2422269746
 C        -6.7684156482        5.8043324633       -3.6794573150
 C        -6.5125555702        6.9513649175       -2.5977275710
 C        -7.5436929926        8.1207711263       -2.8587661185
 O        -8.5865217614        8.1438507032       -2.1755286093
 C        -7.2316232977        9.1523310567       -3.9128183760
 C        -8.0987746694        8.7782564568       -5.2735594758
 O        -7.7523438592        7.7979670066       -5.8988088564
 C        -9.2142190548        9.5901745536       -5.7676842289
 C        -7.6829395213       10.6160999882       -3.4467949849
 C        -5.7227345975        9.1247223091       -4.3538377517
 C        -7.3608009193        3.5180356254       -5.6346183176
 C        -9.6624663978        3.2676051863       -4.6353640464
 C        -6.1523895862        3.3878181671        0.7912291468
 C        -8.3362981122        2.3236270937        1.8858107232
 C       -13.3575143808        7.3342063610        1.4143003209
 C       -12.3030425954        7.7251426014        3.6889426225
 C       -13.2245173137        2.2273801067        5.3915849737
 C       -10.7655277005        2.1588771644        4.8954502695
 C       -10.7350991273       -2.9307863602       -0.5288393186
 C       -10.6422139894       -4.3319116316        1.6759287958
 H        -7.0675568956       -3.3971832781       -0.1087598564
 H        -8.3395303778       -4.5659361639        0.2525666917
 H        -7.1344287437       -4.1443831341        1.4253374619
 H       -10.7687391097       -2.6167283865        3.4526603292
 H       -12.4525905581       -2.0925423169        3.2666932324
 H       -10.4107363476       -0.0498343084        3.3984496905
 H       -10.8637566913       -0.8941474997        4.8535810465
 H       -14.4204120428        2.9124320150        3.3852758775
 H       -14.0184112284        2.3809787863        1.7527329024
 H       -14.5406772725        4.8902224331        2.1385350667
 H       -13.3869247407        4.5780101707        0.9349410873
 H        -9.8809816508        6.8257713437        3.6676313986
 H        -8.8942032864        7.3731075610        2.2260628449
 H       -10.0819259362        4.5064621042        2.4467535957
 H        -8.7123541514        4.9688631469        3.5775233137
 H        -8.5785590787        0.9218364609       -0.4764966376
 H        -6.9358992624        1.5053202325       -0.9666755503
 H        -9.4677620211        1.7351746342       -2.8097167463
 H        -8.2259210016        0.6902100311       -3.0380229501
 H        -6.4612564298        6.0835741829       -4.7169396769
 H        -6.0849405609        5.0365372915       -3.3228521388
 H        -5.4774694464        7.2061603161       -2.6272727781
 H        -6.4908606042        6.5314946595       -1.5754385621
 H        -9.5247826645        9.1867313986       -6.6987917335
 H        -8.9597114659       10.6603308219       -5.7657921666
 H       -10.0815144145        9.5069112206       -5.0889022313
 H        -8.7728901555       10.5066712407       -3.2502318656
 H        -7.5723338728       11.4121499365       -4.2474243711
 H        -7.0857329249       10.9387327318       -2.5772687111
 H        -5.4725915597        8.1543416812       -4.7565792373
 H        -5.0999345083        9.3141668945       -3.4964031309
 H        -5.6147779842        9.8571187390       -5.1792407988
 H        -7.5630354451        4.3697351458       -6.2529731785
 H        -7.5980365924        2.6282541041       -6.2285716108
 H        -6.3095925779        3.5880572312       -5.3292105895
 H       -10.0540565006        3.9979190846       -5.3573882911
 H       -10.2284985263        3.3711705980       -3.7569770867
 H        -9.8270773887        2.2416606647       -5.0286966024
 H        -5.8087834610        3.9291824414        1.6477211443
 H        -5.9368017241        3.8319007023       -0.1843589258
 H        -5.9525196841        2.3627240801        0.7185430361
 H        -8.4305461702        2.7151460320        2.8644902547
 H        -7.7578092640        1.3811014328        1.8285705856
 H        -9.3616914435        2.1835361627        1.6001558204
 H       -14.3002750873        7.1979297089        1.8999325452
 H       -13.2526214722        6.7258288142        0.4989371842
 H       -13.1535769049        8.4244109805        1.3381104930
 H       -11.7264281306        7.2749840483        4.4622680525
 H       -13.3022818348        7.8687870370        4.1039292188
 H       -11.9667338187        8.7354138084        3.5073503804
 H       -13.9099818451        3.0193776586        5.0255940856
 H       -12.7173127733        2.4629979998        6.3278078520
 H       -13.7883689804        1.3799869779        5.6187358803
 H       -10.5783064308        1.5316139791        5.7697375114
 H       -10.7246078065        3.1636366930        5.2575351635
 H       -10.0426421374        1.9636609579        4.1253892379
 H       -10.3338175905       -2.0577209618       -1.0081890267
 H       -11.8121194063       -2.7261706684       -0.6411818893
 H       -10.4136597879       -3.8658117878       -0.9296537303
 H       -11.6782442655       -4.3393609475        2.0578558694
 H        -9.9703980130       -4.5158629279        2.5161701516
 H       -10.5120540483       -5.1181571252        0.9673199369
 Na       -9.1097922807        6.3188982521       -1.0334844054
