117

 C        -7.9633170702       -3.7666153841        1.1979205913
 C        -8.8997025364       -2.5723145503        1.4198505737
 O        -8.4538823497       -1.5037748213        1.7747939277
 C       -10.4518398261       -2.8662629452        1.1687606623
 C       -11.1320344020       -1.6921945880        1.7718908717
 O       -11.4776625335       -0.7784826730        1.0584701751
 C       -11.1889230754       -1.6435516999        3.3100433524
 C       -11.0261200352       -0.1598552568        3.8517360002
 C       -12.3327494668        0.4839505321        4.2529549870
 O       -13.3689631974       -0.0753490741        4.3587922057
 C       -12.2227493348        2.0690390684        4.5731822315
 C       -12.2529740532        2.5423417400        3.1106739742
 O       -11.2508943985        2.5281308319        2.4515262928
 C       -13.5367005884        2.9177032163        2.3914782533
 C       -13.4751788253        4.3695988819        1.8412530979
 C       -12.7777743755        5.3280559156        2.7331517780
 O       -12.3003584868        4.8909858139        3.7613173962
 C       -12.3145742728        6.7288105137        2.2062596383
 C       -10.9612333598        6.4101576174        1.5567825582
 O       -10.8421913271        6.1451770795        0.3782271012
 C        -9.6805743332        6.3610840097        2.4664893985
 C        -9.0233245997        4.9424949045        2.4453675817
 C        -8.1208826163        4.7028787746        1.2638915637
 O        -7.6861197166        5.6121291436        0.5804831901
 C        -7.6834841499        3.1926336888        0.9257286325
 C        -8.5619410885        2.9842960455       -0.4262593817
 O        -9.0901386704        3.9169730969       -1.0063649111
 C        -8.4784839550        1.6167502222       -1.1754903260
 C        -8.5844220514        1.7310051441       -2.7083796963
 C        -7.6959404598        2.7933711430       -3.3920245813
 O        -6.5376307394        2.8169281532       -3.0587136792
 C        -8.1897302914        3.8341627303       -4.4706019113
 C        -8.1229240282        5.2928463244       -3.8479807813
 O        -9.0851917544        5.8384702155       -3.4469639468
 C        -6.7016372936        5.8723487300       -3.7175948277
 C        -6.3725571824        7.0182809751       -2.7126980448
 C        -7.3559998776        8.2184065017       -2.9349081490
 O        -8.2776085963        8.2953098515       -2.1265504739
 C        -7.1391299979        9.2334465914       -4.0759719316
 C        -8.0556042740        8.7219290257       -5.2632446035
 O        -7.6757435107        7.7258426876       -5.8321861283
 C        -9.2382250126        9.5273490767       -5.6681707726
 C        -7.4303511764       10.6837644762       -3.6672540717
 C        -5.6411182635        9.1237339707       -4.4776367266
 C        -7.2603739098        3.6023002923       -5.6990240159
 C        -9.6849123399        3.5517916564       -4.7830614987
 C        -6.1415437876        3.2306489472        0.5447890498
 C        -8.0375911176        2.0990055164        2.0338284991
 C       -13.2905628851        7.3217336319        1.1207525085
 C       -12.1061639074        7.6760977914        3.4280156822
 C       -13.3714869446        2.4501352173        5.5121893577
 C       -10.8628681009        2.5561503275        5.1406086746
 C       -10.6894018043       -2.9507202205       -0.3439768481
 C       -10.8054264157       -4.1989236377        1.8716529290
 H        -6.9066530057       -3.3531370843        1.2388682300
 H        -8.1585094017       -4.2191841920        0.2492436236
 H        -7.9948779095       -4.5667194160        1.8769262766
 H       -10.3825290367       -2.2155827875        3.7543695014
 H       -12.1730621824       -2.0609345894        3.5262163556
 H       -10.5574612127        0.3934825227        3.0610300125
 H       -10.3526128018       -0.1600621679        4.6342567162
 H       -14.3487294234        2.6575104046        3.0865008764
 H       -13.6958439013        2.2277832057        1.5408351827
 H       -14.4279656991        4.6945782700        1.4882719489
 H       -12.7967653432        4.3384816188        0.9293229909
 H       -10.0680092629        6.5298584098        3.4647373018
 H        -8.9356283794        7.0931252497        2.1359463376
 H        -9.9004662680        4.2636366663        2.4219497054
 H        -8.4075838567        4.7716935697        3.3678534761
 H        -9.4144177907        1.1334340585       -0.8510347173
 H        -7.5868913448        1.0781494152       -0.8886890564
 H        -9.6160778105        1.8038517938       -2.9127837677
 H        -8.3458680434        0.8020972312       -3.1748349384
 H        -6.3964503934        6.3393070480       -4.6497919072
 H        -6.1275492822        5.0015286578       -3.5348492325
 H        -5.3660222154        7.3749736202       -2.7893355246
 H        -6.4298151934        6.7546458572       -1.6569547804
 H        -9.8019173060        9.1582655560       -6.4596491690
 H        -8.9055405361       10.5185400997       -5.9369026409
 H        -9.9104742466        9.6262997739       -4.7669800065
 H        -8.4487158880       10.7768273529       -3.2767055001
 H        -7.1414139178       11.3119063852       -4.5120990307
 H        -6.8584029112       10.9854642785       -2.8032477065
 H        -5.4473118908        8.2169417035       -5.0286192305
 H        -4.9833517061        9.2556380899       -3.6555876247
 H        -5.4858572739       10.0120706094       -5.0816375730
 H        -7.5498247943        4.2363736170       -6.5222447372
 H        -7.3393406281        2.5619979197       -6.0989580903
 H        -6.2445405574        3.6836096455       -5.3278033412
 H       -10.0054655465        4.1720014422       -5.5646352594
 H       -10.2741034657        3.6571343017       -3.9376604325
 H        -9.8351442168        2.5439867582       -5.0700119561
 H        -5.7027565007        3.2241120018        1.5265022892
 H        -5.9989548435        4.1224776498       -0.0317938049
 H        -5.9034562602        2.3416254782        0.0565733087
 H        -7.2800054324        2.0897418710        2.7999303242
 H        -8.0161741989        1.0756483437        1.5512731805
 H        -8.9300876108        2.3510440564        2.5890240743
 H       -14.0966840040        7.7092743415        1.6831497109
 H       -13.4972249398        6.5764083050        0.3871892981
 H       -12.8956880133        8.2474260342        0.7643835597
 H       -11.7826103455        7.0482190859        4.2465404669
 H       -13.0423714224        8.1960377301        3.7490616516
 H       -11.3963485512        8.4184584095        3.3100605100
 H       -13.0395961504        2.9138209820        6.4373696715
 H       -14.0566116806        1.6194847588        5.5739693174
 H       -13.9418180344        3.2330531380        5.1272380154
 H       -10.6585775154        2.2019454696        6.1393420695
 H       -10.9238794372        3.6100829350        5.2800098379
 H       -10.0702870806        2.2184522528        4.4674993950
 H       -10.8877454773       -1.9508055314       -0.7303591982
 H       -11.5467082267       -3.6029945046       -0.5692633943
 H        -9.7933483097       -3.3574158371       -0.7923998089
 H       -11.8358470546       -4.5759172717        1.5891483563
 H       -10.6477776263       -4.0448608431        2.9654456558
 H       -10.0838713069       -4.9356692463        1.5579716079
 Na       -9.1289263738        6.4200312587       -1.0727703346
