117

 C        -7.9404466629       -3.8175878124        1.2173184995
 C        -8.7785208182       -2.6054001984        1.5386171955
 O        -8.4102366007       -1.4822518122        1.8336453068
 C       -10.2849295484       -2.8838716502        1.2454806542
 C       -11.1852158091       -1.6996556904        1.8447272228
 O       -11.7317865874       -0.9157063621        1.0932010562
 C       -11.2098198165       -1.5898693436        3.3882307237
 C       -11.0052855178       -0.1504363045        3.8561941305
 C       -12.2784908672        0.5151039704        4.4333555140
 O       -13.3648326409       -0.0851525937        4.5131735677
 C       -12.2245246911        2.0624538084        4.5774557579
 C       -12.1940267859        2.6554268347        3.0889622402
 O       -11.0937557687        2.5602323580        2.5343051060
 C       -13.5573682105        3.0666708929        2.4088449751
 C       -13.4585630184        4.3796797818        1.6433477628
 C       -12.7470539633        5.3384267709        2.6786865731
 O       -12.4761120442        4.9955117518        3.8064044197
 C       -12.3227339304        6.6912794935        2.1809977431
 C       -10.9344245109        6.4200593835        1.5209668395
 O       -10.8383792705        6.1315109351        0.3155835631
 C        -9.6434496467        6.3438006310        2.4552780528
 C        -9.1488254346        4.8947678122        2.4191718571
 C        -8.0959355856        4.6322281705        1.3847037211
 O        -7.7113530953        5.5388677272        0.6229455671
 C        -7.6483380220        3.1865590233        0.8826002618
 C        -8.5422214810        2.9621440880       -0.5025221864
 O        -9.1322980858        3.9049116387       -0.9642287717
 C        -8.4979199505        1.6055248799       -1.1910193136
 C        -8.7731935362        1.8255456125       -2.6567297471
 C        -7.6748658774        2.7372765988       -3.3212065043
 O        -6.4947803964        2.7891213530       -3.0661216918
 C        -8.2003949254        3.8469852150       -4.5104897203
 C        -8.0309480597        5.2419236906       -3.8333187813
 O        -9.0621417382        5.8361033977       -3.4321545050
 C        -6.5788461492        5.7785835294       -3.7348090295
 C        -6.4267130147        6.9329219771       -2.7572805239
 C        -7.3208259209        8.2236747341       -2.8144217826
 O        -8.2578874267        8.3905206659       -2.0601328134
 C        -7.0724266546        9.2329850894       -4.0192065023
 C        -8.0003997246        8.6756497791       -5.2645134181
 O        -7.6946475721        7.7485536636       -5.9757390695
 C        -9.2569475146        9.5481444230       -5.6287751440
 C        -7.3967250744       10.6576437546       -3.6645657063
 C        -5.6060400676        9.1942957521       -4.5551443218
 C        -7.2772390562        3.6413707541       -5.7727513093
 C        -9.6935796930        3.6008746541       -4.8514661869
 C        -6.2184327517        3.1308454460        0.4059920336
 C        -7.9251765782        2.0526951147        1.8130395784
 C       -13.3411015851        7.2752518756        1.1269752273
 C       -12.1357876822        7.6752536538        3.3149384390
 C       -13.4276692483        2.4984123116        5.4734848730
 C       -10.9319896575        2.6033585713        5.2729429054
 C       -10.5755771371       -2.8768151123       -0.3037512111
 C       -10.9231654980       -4.2241169270        1.8800553382
 H        -6.9172222687       -3.7267844758        1.3088720327
 H        -8.2341897588       -4.2617874200        0.2556901809
 H        -8.2489996091       -4.5978651596        1.9059885688
 H       -10.3261521826       -2.1776854855        3.7473634524
 H       -12.0738204337       -1.9642796778        3.7793659330
 H       -10.6834387913        0.4547486739        2.9970015859
 H       -10.1560236262       -0.1279960551        4.4895029116
 H       -14.2179886319        3.0925552821        3.2452381717
 H       -13.8924599822        2.1448032562        1.8678475115
 H       -14.4520534251        4.7951814697        1.4830340941
 H       -13.0146834926        4.2842436347        0.7447465060
 H        -9.8124713794        6.7466904856        3.4372973226
 H        -8.7848201901        6.8013963112        1.8782311832
 H        -9.9894581891        4.2376223183        2.2637216984
 H        -8.6139226535        4.6593499240        3.4492505325
 H        -9.2855599529        1.0747573889       -0.7116740746
 H        -7.5002732482        1.1369247623       -1.1014968531
 H        -9.7882784998        2.0990051507       -2.8394130192
 H        -8.6848414381        0.8979558886       -3.1780057779
 H        -6.1886682196        6.1755124942       -4.7028668441
 H        -6.0125696119        4.9172751251       -3.3993648643
 H        -5.4043514577        7.4216062777       -2.8818779227
 H        -6.4462092489        6.6252082020       -1.7353981097
 H        -9.8827067302        8.8882795334       -6.2521701149
 H        -9.1323263365       10.4105158367       -6.2211362068
 H        -9.8821089861        9.7317368377       -4.7446128011
 H        -8.3775387608       10.7596308600       -3.1539009847
 H        -7.2362260016       11.1789970150       -4.6033822812
 H        -6.7313173848       11.0893396306       -2.8917794309
 H        -5.3803973655        8.2050015280       -4.9765933316
 H        -4.9209638142        9.4387458717       -3.7566719628
 H        -5.4704298172        9.9973521555       -5.2214616951
 H        -7.7085938020        4.3391510450       -6.5113854169
 H        -7.3781712448        2.6640000736       -6.2381549997
 H        -6.2603484867        3.7488648049       -5.5274668502
 H        -9.9627389547        4.3099569713       -5.5716647955
 H       -10.3254252794        3.7209821277       -3.9592461898
 H        -9.9475574595        2.6538636869       -5.2123225653
 H        -5.6331566151        2.8884893970        1.2879344438
 H        -6.0800060087        4.0692065496       -0.0316030918
 H        -6.1022699218        2.2696411406       -0.2583780008
 H        -7.1593306685        2.1174373501        2.5842555415
 H        -7.7325646940        1.1108898452        1.3180650947
 H        -8.8512606970        2.1263147426        2.3845864293
 H       -14.2223904111        7.7051950160        1.6331915896
 H       -13.4601838330        6.4833161751        0.4330754738
 H       -12.9216650884        8.1349559999        0.6533213257
 H       -11.5107832742        7.2617602858        4.0969421054
 H       -13.1148843500        7.8372589929        3.7629599155
 H       -11.7276859948        8.6061896588        3.0363144969
 H       -13.2670892729        2.3986219496        6.5081915674
 H       -14.3385414527        2.0114249115        5.1708410078
 H       -13.6054363159        3.5879712463        5.3901348257
 H       -10.8526034741        2.2792176098        6.2542536978
 H       -11.0955621347        3.6684946639        5.3560127941
 H       -10.0008514965        2.3392739067        4.7543130006
 H       -10.4635050980       -1.8420531961       -0.6795698187
 H       -11.5633723178       -3.2603206143       -0.4635460174
 H        -9.8519494179       -3.5135585933       -0.8428201011
 H       -11.9638023224       -4.2280774750        1.5276781183
 H       -10.8358552401       -4.1913227395        2.9775212672
 H       -10.4637628331       -5.1381403859        1.4835134992
 Na       -9.1055641683        6.4311116505       -1.1521087336
