117

 C        -7.8048957798       -3.8313818877        1.3251949730
 C        -8.8405311496       -2.7342600601        1.5622649274
 O        -8.3518588373       -1.6507962526        1.8616331289
 C       -10.3795681541       -2.8412539430        1.2694383474
 C       -11.2068309321       -1.6631470500        1.9196808718
 O       -12.0064404845       -1.0248986348        1.2653333966
 C       -11.1972322733       -1.5237409655        3.4501056034
 C       -10.9837950602       -0.1000757342        3.8775285527
 C       -12.2635178023        0.5654701003        4.4115660278
 O       -13.2270022606       -0.1011033905        4.7261577121
 C       -12.2404418991        2.1639613895        4.6291201889
 C       -12.2398553633        2.6013894506        3.1982121841
 O       -11.1943642163        2.7081131234        2.5251733590
 C       -13.5275662225        2.9866167472        2.4604404523
 C       -13.3203723776        4.2909264552        1.7193467921
 C       -12.7603566079        5.3832183114        2.6411934767
 O       -12.6693571174        5.1087176257        3.8135921990
 C       -12.2113619453        6.7732967808        2.1185146294
 C       -10.8484674602        6.4536716501        1.4386436256
 O       -10.9228024943        6.2253868644        0.2506217793
 C        -9.6173700289        6.2693658805        2.3049542651
 C        -9.1096578761        4.7852641005        2.3803828807
 C        -8.0959234155        4.5557877020        1.3046877596
 O        -7.6474882748        5.5486127708        0.7345190419
 C        -7.6632235741        3.1578601108        0.7648004254
 C        -8.5656043063        2.9799646041       -0.5376616435
 O        -9.1897072421        3.8912126561       -1.0246763455
 C        -8.4707935663        1.6417104921       -1.1911488038
 C        -8.7857695705        1.9557521115       -2.7185851475
 C        -7.7608223746        2.7726718656       -3.4000311414
 O        -6.6093151038        2.6980827357       -3.0163359464
 C        -8.2469683311        3.8081034193       -4.5026722315
 C        -7.9326148682        5.1287434381       -3.8123973979
 O        -8.9097000834        5.7930787116       -3.4003197053
 C        -6.5829152657        5.7750267079       -3.7435075589
 C        -6.4865309643        6.8841499811       -2.7020453591
 C        -7.3107242235        8.1426008283       -2.9141876684
 O        -8.1243330695        8.4968004197       -2.0988091455
 C        -7.0680752822        9.2162617734       -4.1256904710
 C        -7.9615617431        8.7367966830       -5.2807866172
 O        -7.6284875003        7.7842102945       -5.9759575599
 C        -9.2675342253        9.4948546383       -5.5173198379
 C        -7.4522267812       10.6041753093       -3.5775738214
 C        -5.5711268400        9.1657085495       -4.6439979033
 C        -7.3770372198        3.6780530310       -5.7279187990
 C        -9.6660902029        3.6650216163       -4.9571441524
 C        -6.1535408787        3.1642842511        0.2458457467
 C        -7.9158646681        1.9358045616        1.7434334459
 C       -13.2861665768        7.2972338810        1.0561654141
 C       -12.2734935375        7.8050106429        3.2937276232
 C       -13.5193890706        2.5975041829        5.3827022220
 C       -10.9832712209        2.5545945366        5.4280996190
 C       -10.4417515005       -2.8531906843       -0.2529343473
 C       -10.9323986646       -4.1760701909        1.8176438954
 H        -6.8458550312       -3.4542769390        1.5768486652
 H        -7.8053818325       -4.3097075685        0.3528911737
 H        -8.0061431548       -4.6868235436        2.0190473782
 H       -10.5382294722       -2.2385650798        3.9316891235
 H       -12.2255854322       -1.7058793011        3.8328713854
 H       -10.4244283002        0.5112464694        3.1490028178
 H       -10.2392109119       -0.1263377289        4.7857096208
 H       -14.3988657796        2.9582534126        3.0852317304
 H       -13.6360498710        2.1382715081        1.8020755829
 H       -14.3014742034        4.6361345711        1.3860219814
 H       -12.7388504665        4.1272042777        0.8274859655
 H        -9.8706072042        6.6682940546        3.3127816128
 H        -8.7579845036        6.7635832640        1.8309679872
 H        -9.9962887269        4.1299554495        2.3001899571
 H        -8.6836604502        4.7269371614        3.3756968622
 H        -9.2370531574        1.0228621380       -0.7297743717
 H        -7.4557567537        1.2637920558       -1.0606376255
 H        -9.7978831340        2.4447258317       -2.7805391327
 H        -8.9583539707        1.0396623464       -3.3400783504
 H        -6.3525407939        6.1950920010       -4.7405187223
 H        -5.8373181374        4.9705432283       -3.4353256229
 H        -5.4235119670        7.2171933505       -2.5470094898
 H        -6.8610027419        6.5127709279       -1.7114365130
 H       -10.0007757923        8.8225145055       -6.0568462555
 H        -9.1094797742       10.2729315479       -6.3069863310
 H        -9.7411410567        9.8571460503       -4.6642763829
 H        -8.2958495940       10.5703645194       -2.9035838821
 H        -7.5291215806       11.2226575569       -4.4735719196
 H        -6.6838409195       11.0446703622       -2.9135753681
 H        -5.2676381347        8.1599257038       -4.8766467289
 H        -4.9410874080        9.5847303069       -3.8339319845
 H        -5.4143167586        9.8842649887       -5.4382315172
 H        -7.7666761962        4.4924115063       -6.3131185512
 H        -7.5625831008        2.8017418229       -6.2903564958
 H        -6.3098210829        3.7063232752       -5.4917903171
 H        -9.7424093675        4.4542963483       -5.7537566749
 H       -10.4170530829        3.8883748097       -4.1779527108
 H        -9.9841895780        2.7066124046       -5.3934541746
 H        -5.5717881152        2.9274784903        1.1279289302
 H        -6.0354158553        4.1682850271       -0.1888053463
 H        -5.9907200877        2.2759989402       -0.4151106428
 H        -7.3473741370        2.1676422507        2.6627633223
 H        -7.4633622888        1.0688835208        1.3692874010
 H        -8.9424877483        1.7715465847        2.0907471425
 H       -14.2369415143        7.4059544265        1.5899792868
 H       -13.2195652459        6.5202152914        0.2657845867
 H       -13.0667793028        8.2921428286        0.6390782309
 H       -11.5696358353        7.6026170157        4.0954480457
 H       -13.2303040085        7.7287404638        3.7138617261
 H       -12.0420553291        8.8938530159        2.9808453519
 H       -13.7763624209        1.9044361240        6.2204584008
 H       -14.4560186476        2.6042101655        4.8057126255
 H       -13.4570588097        3.5843438734        5.8955212426
 H       -10.9648385246        2.0502157240        6.4096648875
 H       -10.9872223760        3.6405525722        5.5906168439
 H       -10.1004871524        2.2606907794        4.9145185827
 H        -9.7806540995       -2.0381566945       -0.5714370802
 H       -11.4484786907       -2.8283865037       -0.6655310125
 H        -9.9504853246       -3.7779878881       -0.6161284700
 H       -11.9744543426       -4.1866650007        1.6930284519
 H       -10.6205403472       -4.3491594480        2.8212123610
 H       -10.5477992407       -4.9618773929        1.1419019020
 Na       -9.0515660931        6.3731922505       -1.1852206594
