117

 C        -8.5000788257       12.4929950677       -2.7959368669
 C        -7.6665971685       11.2439172962       -3.1236888757
 O        -8.2607201120       10.2184630876       -3.5103204287
 C        -6.1118814067       11.1142062081       -3.0857686156
 C        -5.7319072771       11.1133100510       -1.4261861388
 O        -6.1970882178       11.9727380300       -0.6993532185
 C        -5.0262942717        9.8664910802       -0.6086894442
 C        -6.1318389984        8.8944478367       -0.3408877510
 C        -5.6096972914        7.4622452012       -0.0877739484
 O        -5.0575941350        6.7770201850       -0.8813505035
 C        -5.7528365767        7.0379884347        1.4321688152
 C        -7.3198398832        7.1741535236        1.6014684847
 O        -7.6957303218        8.2043552685        2.1411010767
 C        -8.0756510276        5.9770185984        1.0546870585
 C        -9.4420271547        6.3992314483        0.4191974931
 C       -10.3963279877        5.2776093861        0.2441838788
 O       -10.1457053473        4.2193148836        0.8263385085
 C       -11.7786770410        5.4602308923       -0.4446948799
 C       -12.6816712341        4.2272675484       -0.2333895700
 O       -12.5177527200        3.1557930614       -0.7583403061
 C       -14.0000181654        4.2941289749        0.6940015624
 C       -14.7711846371        2.9569615393        0.7325373641
 C       -14.0706541143        2.0757443687        1.7561835884
 O       -13.1298718130        2.4669548531        2.4172955942
 C       -14.5420313288        0.6312741460        2.1452193495
 C       -13.4968829617       -0.4545371841        1.5320000007
 O       -12.4098345853       -0.0892174688        1.1095974262
 C       -13.9297763729       -2.0158303510        1.7039107768
 C       -12.7732200856       -2.9557140804        1.1243799232
 C       -12.9937583661       -3.0187251094       -0.4060101669
 O       -14.0396529900       -2.4680401575       -0.7526797822
 C       -11.7407336064       -3.1105350618       -1.3149522847
 C       -10.6438900853       -1.9756229984       -0.8576112887
 O       -10.1976717780       -1.5552735156        0.2474065696
 C        -9.7537791969       -1.7316647047       -2.0660723039
 C        -8.5090584896       -1.0145025181       -1.5639513236
 C        -8.7560525873        0.2536492769       -0.7811206380
 O        -9.7919470085        0.9691882694       -1.0088904071
 C        -7.6768968187        0.7983912780        0.1909194806
 C        -8.2124724766        0.5250140399        1.7265887100
 O        -9.1741214013        1.0971738815        2.1987334057
 C        -7.3239284533       -0.2768091940        2.6979778167
 C        -6.2937580333        0.2132911219        0.0525825146
 C        -7.6234489548        2.3363600974       -0.0004939767
 C       -10.9927522334       -4.4363113670       -1.1095538392
 C       -12.2615183576       -2.9827052387       -2.7780330229
 C       -14.6401775278        0.6101430410        3.6506695426
 C       -15.8779417884        0.3655358974        1.4531394643
 C       -12.4549304841        6.7519091836        0.0396556518
 C       -11.5334544351        5.4675840074       -1.9697983762
 C        -5.3213801426        5.5972412662        1.6607238448
 C        -4.9856066155        8.0189442344        2.4182686545
 C        -5.7176519068        9.7810703863       -3.7183258738
 C        -5.4856451735       12.3859194170       -3.7392609608
 H        -8.2088141923       13.1179105041       -3.6093960499
 H        -8.0935755716       12.9255982189       -1.8635901461
 H        -9.5236135677       12.1676155332       -2.8349226266
 H        -4.5694372342       10.2864085141        0.3182381793
 H        -4.1528433433        9.3573600744       -1.0949318419
 H        -6.8362367786        8.7058607084       -1.1818789553
 H        -6.6690661582        9.4285968054        0.4900481543
 H        -8.1961945086        5.2288312653        1.8454599832
 H        -7.3601814264        5.5565809340        0.2815286281
 H        -9.2080816184        6.9226611981       -0.5742807465
 H        -9.8875964805        7.2257046350        1.1046019413
 H       -14.6136666457        5.1142085063        0.2725293238
 H       -13.6654551994        4.5651237601        1.7057345544
 H       -14.8286907910        2.2461652841       -0.1892014122
 H       -15.7311202328        3.2054504980        1.1178229944
 H       -14.8611046762       -2.1835232306        1.1654433104
 H       -14.2094874785       -2.0483624256        2.7419771792
 H       -12.7226280034       -3.9471999707        1.6628223377
 H       -11.9054917395       -2.2335753098        1.0963972760
 H       -10.2484175744       -1.3232482689       -2.9450743036
 H        -9.3351649988       -2.7320690676       -2.2851218236
 H        -7.9022512649       -0.7545881416       -2.3968996898
 H        -7.8183706302       -1.5880416230       -0.8860111952
 H        -6.9094330834       -1.2250630521        2.3604493805
 H        -7.9259458992       -0.4199677457        3.5965362632
 H        -6.4633312008        0.3574287834        2.9508404226
 H        -6.0208542592        0.1306520999       -1.0677805339
 H        -6.2128204737       -0.7245071815        0.4085773031
 H        -5.5124552082        0.8554097143        0.3854591816
 H        -8.5987050189        2.6636282118       -0.1345011458
 H        -7.0636783134        2.5282783268       -0.9031389619
 H        -7.2675717856        2.8645669623        0.8796343978
 H       -11.0490500626       -5.1489741579       -1.9546040083
 H       -11.5621281487       -4.9973549699       -0.2679495244
 H        -9.9604957655       -4.4459345535       -0.8148741018
 H       -13.1415614372       -2.2832492668       -2.7480453801
 H       -12.5134688644       -4.0296523604       -3.0359263721
 H       -11.5889026451       -2.5111737849       -3.4629806067
 H       -15.3653655818        1.3522749615        3.8371208618
 H       -13.6966527804        0.9110075378        4.1059972008
 H       -14.8860623815       -0.3277937729        4.1615856194
 H       -16.5543961449        1.1384237481        1.8179222235
 H       -16.2801398975       -0.6287465254        1.6239031682
 H       -15.9372955676        0.3215908608        0.4271741079
 H       -13.3079539703        6.8241160713       -0.5672340048
 H       -11.7781178435        7.5524619972       -0.1095802680
 H       -12.8542987758        6.7655488973        1.1425227481
 H       -11.5904882035        4.4500744135       -2.3450319723
 H       -10.5622092053        5.9460662157       -2.0838822594
 H       -12.2696984669        6.1280669903       -2.4789628163
 H        -4.2610076112        5.6626100293        1.3959776997
 H        -5.7765587667        4.9639689781        0.9363857735
 H        -5.4702365491        5.1664660976        2.6582072033
 H        -5.3835674920        9.0220079543        2.4859939711
 H        -3.9194168513        8.1342831609        2.2974919506
 H        -5.1139616450        7.7340983279        3.4522118579
 H        -6.2500243322        8.9565026342       -3.2469812009
 H        -4.6405654058        9.7532977664       -3.9505039532
 H        -6.1414126770        9.6274073245       -4.6686505746
 H        -5.5099454770       13.1833318694       -3.0483018357
 H        -6.0980896216       12.6353547190       -4.5607375800
 H        -4.4237555253       12.3055934315       -4.0509326565
 Na      -11.1629407604        1.9932517019        0.8897907311
