117

 C        -7.9246313048       -3.9479993974        1.9241283349
 C        -8.8614753838       -2.7334837912        1.8281490722
 O        -8.4262988523       -1.6586852157        2.1925730236
 C       -10.3962409135       -2.8846593887        1.4290537613
 C       -11.3430096693       -1.8363673533        2.2368434481
 O       -12.2748837130       -1.1922971133        1.7921657125
 C       -11.0161905630       -1.6235972467        3.7482699804
 C       -10.9806485262       -0.1235277788        3.9830728937
 C       -12.1789348171        0.3791700430        4.7945511208
 O       -12.9931989378       -0.2959404029        5.3038228845
 C       -12.4045686628        2.0171761600        4.8376694188
 C       -12.2475079976        2.4865363398        3.3231144399
 O       -11.1194026058        2.6634154777        2.8284143102
 C       -13.5215386717        3.0540058450        2.5229898193
 C       -13.1021037641        4.2992346777        1.6709927468
 C       -12.8590475929        5.5222954271        2.5566418304
 O       -13.2524337445        5.5617381705        3.7199233250
 C       -12.2266886196        6.9118084828        1.8785811661
 C       -10.8253809381        6.6443668394        1.3111828580
 O       -10.6429822633        6.8883846520        0.1470770487
 C        -9.7448071530        6.2370277609        2.2971358261
 C        -9.1291034049        4.8001333011        1.9781110660
 C        -7.9282053206        4.7202229046        0.9864953068
 O        -7.2796074654        5.6976293304        0.6551880106
 C        -7.7102726439        3.3272116225        0.4056231032
 C        -8.6296254200        3.0948495883       -0.7777583127
 O        -9.2461397084        4.0259227091       -1.2502778280
 C        -8.7386177331        1.7541344814       -1.3973924820
 C        -9.0361199735        1.8985753392       -3.0147616496
 C        -7.9410206109        2.7200925381       -3.6336262832
 O        -6.8020045310        2.6143649259       -3.2248231487
 C        -8.2276807354        3.7963324209       -4.7272573277
 C        -8.0211723734        5.1512503771       -3.9240367753
 O        -8.8710660293        5.6651993700       -3.2118172645
 C        -6.6098529161        5.6436736525       -4.0153957240
 C        -6.2176527522        6.6807087983       -2.8695936191
 C        -7.1583052566        8.0314098457       -2.9922772170
 O        -8.0549337100        8.1688640525       -2.1901790506
 C        -6.8790542515        9.1192559047       -4.0610200797
 C        -7.8901479953        8.6496391628       -5.2069317505
 O        -7.5627768617        7.7367569189       -5.9549613273
 C        -9.2970757653        9.1238150296       -5.1897641474
 C        -7.3476077822       10.5120685700       -3.4833133711
 C        -5.4362070023        9.0841622311       -4.5980230961
 C        -7.2151950257        3.6505240586       -5.9194456604
 C        -9.6216306704        3.8747285383       -5.3654890929
 C        -6.2205083236        3.0934479148       -0.0710913008
 C        -7.9791528644        2.2857612137        1.5201010309
 C       -13.2795061882        7.2754694549        0.7848874725
 C       -12.2754301468        8.0557133443        2.9333735168
 C       -13.7660533022        2.3082415186        5.5028536107
 C       -11.2120049254        2.6099910518        5.6786089245
 C       -10.4280502910       -2.5164700621       -0.0953415418
 C       -10.9202841193       -4.3172889368        1.6526895197
 H        -6.9015104199       -3.5259889136        2.0681181931
 H        -7.9003141233       -4.6486223881        1.1577450417
 H        -8.2064872622       -4.5053612113        2.7953193585
 H       -10.2029673942       -2.1551676386        4.0992494977
 H       -11.8527733311       -2.0895864867        4.2400546373
 H       -10.8779392416        0.3867218163        3.0748091266
 H       -10.0162580406        0.2305797299        4.4428900542
 H       -14.2992329613        3.3237169774        3.2452118967
 H       -13.9787978282        2.3391382386        1.8487450929
 H       -13.9379487391        4.5201531570        1.0911041713
 H       -12.3318621676        4.1543126450        0.9384949983
 H       -10.1506139681        6.2906080717        3.3649820909
 H        -9.0122330489        7.0504560129        2.2221534326
 H       -10.0410192422        4.2952633777        1.4919364478
 H        -9.0118814791        4.3411594519        2.9491879061
 H        -9.5765650980        1.2536618466       -0.8937625239
 H        -7.8365916640        1.2015110323       -1.2037969472
 H        -9.9574793820        2.4699172288       -3.0667720863
 H        -9.2453673971        0.9426932174       -3.4633294815
 H        -6.5096881667        6.0318273990       -5.0122311898
 H        -5.9028114602        4.7836118753       -3.9017736764
 H        -5.1418662734        6.8170460751       -2.9447825926
 H        -6.5256878339        6.2639971681       -1.8712639188
 H        -9.8600986784        8.7099616534       -6.0075500416
 H        -9.3391622466       10.2020460844       -5.4460022899
 H        -9.7572112392        8.8714162754       -4.2784147598
 H        -8.4135751425       10.4709321428       -3.2408269086
 H        -7.3023546431       11.2508201504       -4.3264273565
 H        -6.7474408439       10.8813599587       -2.6102011851
 H        -5.3278576341        8.1723185254       -5.1289819992
 H        -4.7938413375        9.0120132608       -3.7166201024
 H        -5.1238225985        9.8953203380       -5.2596760368
 H        -7.2436026765        4.4724988729       -6.6054263312
 H        -7.5193533723        2.7062429573       -6.3365783050
 H        -6.1791072338        3.5648294137       -5.4941280652
 H        -9.7225234123        4.5611931524       -6.1894476285
 H       -10.4018467309        4.1116457860       -4.7466129512
 H        -9.7691120548        2.9185918543       -5.8003923379
 H        -5.5147009071        3.3909750181        0.6526077237
 H        -6.0851115362        3.5865371624       -1.0338160940
 H        -6.2023840240        2.0314407584       -0.1034385173
 H        -7.2296839485        2.2783432050        2.3338006020
 H        -7.9874836149        1.3088248717        1.0767411893
 H        -9.0136850035        2.3261061247        1.8637998755
 H       -14.1613490638        7.4138373329        1.3556436004
 H       -13.4335187243        6.5459838286       -0.0171677845
 H       -12.8940157475        8.1530800680        0.2930979944
 H       -12.1226658130        7.7393022716        3.9261996685
 H       -13.2516803564        8.4487700907        2.9063461877
 H       -11.5046477052        8.8377600354        2.7249074343
 H       -14.2836875777        1.3931758348        5.7478473514
 H       -14.5332430935        2.7644587450        4.9571046242
 H       -13.7327762263        2.9666870972        6.2821710545
 H       -11.2666516936        2.2594902829        6.7216334326
 H       -11.1859771313        3.6708422638        5.5574380960
 H       -10.2945471664        2.3470969400        5.2921569037
 H        -9.4564352588       -2.1547976564       -0.3851991211
 H       -11.2578380818       -1.8415364743       -0.2714570389
 H       -10.6651634580       -3.3555171340       -0.7431555700
 H       -11.9498898021       -4.2613717837        1.2870864963
 H       -11.0307492484       -4.4636137815        2.7418118792
 H       -10.3394609749       -5.1433597674        1.1286727272
 Na       -8.6940262870        6.3768527132       -0.9167460302
