117

 C        -7.9483566255       -3.9412128296        2.0858785460
 C        -8.9363044847       -2.7408442811        2.0022472485
 O        -8.5132136924       -1.6228705023        2.1564052018
 C       -10.4331710746       -2.8411720985        1.5255642127
 C       -11.3125451441       -1.8886255877        2.3818901655
 O       -12.1911664805       -1.2780186111        1.7969308788
 C       -11.0772855230       -1.6554081873        3.8424912342
 C       -10.8755982095       -0.1521472747        4.0917076173
 C       -12.1120159042        0.4167163807        4.7526981379
 O       -12.8652091956       -0.3349541610        5.3610053141
 C       -12.4471047645        1.9874819969        4.8005295386
 C       -12.3154629940        2.6744681421        3.4304273460
 O       -11.2383867552        2.6077152710        2.8649719681
 C       -13.4684661984        3.1038805899        2.5496237355
 C       -12.9963314860        4.3296481567        1.7454817897
 C       -12.9395289572        5.5869930137        2.5807144921
 O       -13.2943434507        5.6875861956        3.7354092167
 C       -12.3801608116        6.8772234854        1.8450893971
 C       -10.8270941755        6.7138494692        1.2908053262
 O       -10.6050782120        6.9890098264        0.1184462976
 C        -9.6552606779        6.3033317260        2.1814802670
 C        -9.2502525558        4.8478010028        1.8839269433
 C        -7.9703384363        4.7001698035        1.0395197201
 O        -7.2666277047        5.6497065424        0.7518846297
 C        -7.6915982198        3.2220098147        0.5067393931
 C        -8.6900541784        3.1637594874       -0.7786958008
 O        -9.2673493176        4.1668323652       -1.2268781555
 C        -8.7869487682        1.7902295133       -1.5180619739
 C        -9.0960082874        1.9983137370       -2.9835086747
 C        -7.9697820725        2.7626697783       -3.6594807153
 O        -6.8317711198        2.5637575526       -3.2934390933
 C        -8.1891775776        3.8057370660       -4.8515865548
 C        -7.9467448448        5.1280311641       -4.0502235650
 O        -8.8246753444        5.5334715473       -3.3598209822
 C        -6.5066409772        5.6681623117       -3.9752592235
 C        -6.3106272426        6.7271117051       -2.8965806797
 C        -7.0783928496        7.9989078119       -2.9823505285
 O        -7.9932992660        8.2492981302       -2.1833626228
 C        -6.8010061248        9.0047571217       -4.0637636439
 C        -7.8811294280        8.5633056751       -5.2138983786
 O        -7.5451020610        7.7394555004       -6.0109134556
 C        -9.3165113922        9.0426936255       -5.1103952258
 C        -7.2701747547       10.3594170716       -3.4217756616
 C        -5.3852465061        9.1412701818       -4.6088064759
 C        -7.1832308093        3.6716153364       -6.0152715753
 C        -9.6999955649        3.7690165225       -5.3282150106
 C        -6.3211235294        3.1788355493       -0.2150000772
 C        -8.0017301817        2.0955437932        1.5258393944
 C       -13.1894771235        7.2768382003        0.6150649141
 C       -12.2362492682        7.9665835343        2.8806461814
 C       -13.7327757006        2.1990880100        5.5086545764
 C       -11.3193386019        2.5056299802        5.8156958678
 C       -10.4401205036       -2.4310353824       -0.0174263905
 C       -11.0020973338       -4.3183343762        1.6636390204
 H        -6.9267300095       -3.5112573188        1.9538119201
 H        -8.0831740698       -4.6068928112        1.2332688076
 H        -7.9972347135       -4.5713893119        2.9379690012
 H       -10.2534891508       -2.2507427451        4.1411067528
 H       -11.9087890155       -2.1688498461        4.3906431871
 H       -10.5391445589        0.4067802254        3.1564017483
 H        -9.9295989614        0.0269738549        4.7004724829
 H       -14.4052885519        3.2120424162        3.1042472531
 H       -13.6091139770        2.3386781285        1.8384729811
 H       -13.5894112665        4.4390607512        0.8683441143
 H       -11.9707301253        4.1326018892        1.2728030897
 H        -9.9747108879        6.4700580305        3.2548321062
 H        -8.8304598893        7.0075748667        2.0153071024
 H       -10.1702191196        4.3320395577        1.5242256065
 H        -9.0835880297        4.3893616314        2.8146433707
 H        -9.5543620167        1.1505624365       -1.0233388755
 H        -7.8431092772        1.2695721540       -1.4805800560
 H       -10.1393855095        2.4084364441       -3.0448063267
 H        -9.1475645841        0.9534618306       -3.4403645907
 H        -6.3062181931        6.0503536228       -4.9960697590
 H        -5.7191234524        4.8984314738       -3.7366737367
 H        -5.2323619186        6.9802885666       -2.9485084299
 H        -6.5783035991        6.2468560866       -1.8893014451
 H        -9.8882645935        8.8912109560       -5.9615775220
 H        -9.2371592253       10.1370086615       -5.0649362240
 H        -9.8204543041        8.6170379997       -4.1868592061
 H        -8.3179462590       10.2243803662       -3.0823203710
 H        -7.3921108550       11.1470887846       -4.2062553757
 H        -6.5986536512       10.7131382648       -2.6242708489
 H        -5.1162656685        8.3224339963       -5.2715086495
 H        -4.6913587263        9.2072032936       -3.7923781305
 H        -5.3268426906       10.0393107743       -5.2585047228
 H        -7.2533476819        4.5088447130       -6.6535151878
 H        -7.3655362376        2.7167303121       -6.4907084996
 H        -6.2168197564        3.7521411386       -5.5607759895
 H        -9.9886198131        4.5460766351       -6.0299619943
 H       -10.4142807108        3.9420701247       -4.5386925717
 H        -9.9032313820        2.8289459917       -5.8574572395
 H        -5.5369789717        3.6164895394        0.4399903976
 H        -6.4452941401        3.8291239386       -1.1053818732
 H        -6.1207916079        2.1451936306       -0.4453701929
 H        -7.3326827413        2.1008920973        2.3486167242
 H        -7.9461351886        1.0839251617        1.0648684851
 H        -9.0255728825        2.1153184698        1.8120554527
 H       -14.1845238469        7.5458084336        0.9646930793
 H       -13.3179004278        6.5598855379       -0.2027416536
 H       -12.5532215257        8.0713378406        0.2177111929
 H       -12.0449080175        7.4707263742        3.8377190789
 H       -13.2175469409        8.5280012785        3.0370550520
 H       -11.4389436186        8.6054660576        2.6855436549
 H       -14.2518773452        1.2771052251        5.8111405134
 H       -14.5819607308        2.6802381228        5.0174537230
 H       -13.6449662192        2.9126636731        6.3007661347
 H       -11.5855784410        2.1830876642        6.7969875128
 H       -11.2573922886        3.5398129376        5.7042246829
 H       -10.3088827365        2.2224234760        5.5891747125
 H        -9.5714724533       -1.8220722817       -0.2464591776
 H       -11.4145369266       -1.9462101804       -0.2388656503
 H       -10.4095429232       -3.2867627963       -0.6709229958
 H       -12.0580167315       -4.2767838232        1.3144565828
 H       -11.0501990141       -4.6294225493        2.7166726327
 H       -10.4291501361       -4.9954520488        1.0618434675
 Na       -8.6848040893        6.4853701352       -1.0698788172
