117

 C        -8.1419678626       -3.9133802098        2.3578694215
 C        -8.9739449075       -2.7018859440        2.0863539020
 O        -8.5075859633       -1.5763394238        2.2222399197
 C       -10.4639718201       -2.8395841084        1.5433620670
 C       -11.3232933501       -1.8504164230        2.4162958681
 O       -12.2771404095       -1.2814319211        1.9394354641
 C       -10.8980998067       -1.6155146593        3.9176857338
 C       -10.8333918979       -0.1895217388        4.3765850601
 C       -12.1412189621        0.2597748778        5.0011631242
 O       -12.9527438797       -0.4349294198        5.4837087587
 C       -12.4407883869        1.8604006116        4.9219793372
 C       -12.2382604216        2.5329480339        3.5557983532
 O       -11.0833258834        2.5865382717        3.1261687399
 C       -13.3519555830        3.2422465064        2.7420423803
 C       -12.9710191424        4.2896718673        1.7133700086
 C       -12.7784140804        5.6860318676        2.4431720178
 O       -13.3262054288        5.8357747184        3.5330211265
 C       -12.2241989226        6.9779677397        1.7744799816
 C       -10.8207546753        6.8145785923        1.1448356266
 O       -10.6111760003        6.9861320529       -0.0337672430
 C        -9.7064923843        6.3128395290        2.1336191124
 C        -9.3284722979        4.7660989962        1.9938931557
 C        -8.1304006337        4.5863130675        1.0985828098
 O        -7.3712790821        5.5268714002        0.9171667083
 C        -7.7347601409        3.2268861258        0.4491908826
 C        -8.7880862723        3.1736268936       -0.8331406755
 O        -9.4525352607        4.1141839448       -1.1603762665
 C        -8.9466516295        1.8640982089       -1.5887843153
 C        -9.1285212578        2.1707764437       -3.1205297031
 C        -7.9023607094        2.7637029289       -3.7732461365
 O        -6.7850357461        2.4219775634       -3.4981487650
 C        -8.1735976442        3.8294739100       -4.9175059487
 C        -7.8993699539        5.0893720740       -4.1032025823
 O        -8.7927476219        5.7438801599       -3.5293877913
 C        -6.5147025611        5.5984157943       -4.0283341130
 C        -6.1908243104        6.6699529791       -2.8983965622
 C        -6.9803690848        8.0463309913       -2.9229041845
 O        -7.7781246653        8.2406401126       -2.0413588722
 C        -6.7324646266        9.1028248624       -3.9979208335
 C        -7.8546219728        8.5506864874       -5.1754313083
 O        -7.4552778911        7.8435702289       -6.0830859281
 C        -9.3316553553        8.8975062228       -5.0756413022
 C        -7.1119367785       10.5097577444       -3.5857050137
 C        -5.3624278260        8.9628042116       -4.7120879615
 C        -7.2799315853        3.4472689319       -6.2042540495
 C        -9.6260428988        3.7803861451       -5.5032371208
 C        -6.3150873501        3.3136222296       -0.1417112221
 C        -7.8974084104        1.9576311005        1.3375876801
 C       -13.1923911684        7.3853317764        0.6122733025
 C       -12.2211426847        8.1887907520        2.7369583377
 C       -13.8371915875        2.0788249160        5.4677556774
 C       -11.4128503932        2.5331353008        5.8272506244
 C       -10.4892996592       -2.4537738457        0.0594531908
 C       -10.9934149651       -4.3175707227        1.7928525581
 H        -7.0661115466       -3.6679333297        2.3971732649
 H        -8.2149243290       -4.7531268810        1.6716466167
 H        -8.5152942695       -4.2914173999        3.3622514294
 H       -10.0211800409       -2.2883593896        4.1771011703
 H       -11.6696574124       -2.1491270146        4.5044708612
 H       -10.5740336437        0.5165696164        3.6466749327
 H        -9.9957702149       -0.0792039180        5.0344432081
 H       -14.0180363723        3.7319863738        3.4679250135
 H       -13.9507363407        2.4140682649        2.2324014620
 H       -13.9228922141        4.4849801799        1.0778864406
 H       -12.2558080794        4.0708137044        0.9339017822
 H        -9.9711142068        6.6713381296        3.1022563017
 H        -8.7718550793        6.8502410681        1.9631708302
 H       -10.2017623412        4.1591032528        1.7872500971
 H        -9.1071039332        4.3371614232        3.0422612870
 H        -9.7875789339        1.4138653253       -1.0626116501
 H        -8.0645766664        1.1942155064       -1.4072880501
 H        -9.9029512760        2.9364330544       -3.0638611856
 H        -9.5198268176        1.3667148237       -3.7117910194
 H        -6.2992342520        6.0282492265       -5.0238474391
 H        -5.8899253774        4.7217292467       -3.9479410108
 H        -5.1487606985        6.9717997509       -2.8603236314
 H        -6.4795708509        6.2465971836       -1.9785631868
 H        -9.8227379477        8.5472552821       -6.0371484584
 H        -9.6125716265        9.9587594799       -4.8964556577
 H        -9.6600861496        8.2598506369       -4.2934768763
 H        -8.0606701848       10.5662290460       -3.1455435537
 H        -7.1624413541       11.1717175730       -4.4078062735
 H        -6.3227204907       10.8685965024       -2.9574514374
 H        -5.3124408510        7.9931400502       -5.2108975507
 H        -4.4287261348        9.1629619067       -4.1259006322
 H        -5.3779713137        9.5555739319       -5.6173291110
 H        -7.2224053500        4.3926473313       -6.7368403902
 H        -7.7677811226        2.6646439241       -6.7388041600
 H        -6.2490121691        3.3044868267       -5.8516665734
 H        -9.5837433390        4.2986474879       -6.5070499339
 H       -10.3041863759        4.4713415767       -4.9863379897
 H       -10.1005780274        2.8074661231       -5.7355062197
 H        -5.7098359766        3.4010818934        0.7529056666
 H        -6.1547243332        4.2352305052       -0.7400633800
 H        -6.1536091466        2.3446091199       -0.6910100329
 H        -7.1982497164        2.0880917231        2.1853003736
 H        -7.5501049833        1.0909554653        0.8624442514
 H        -8.9004060988        1.6476693615        1.6506700513
 H       -14.1764844199        7.2590635544        1.0451290125
 H       -13.2274316474        6.6252003594       -0.1986380693
 H       -12.8495905847        8.3302461664        0.1656895784
 H       -11.5222776589        8.1234696707        3.5801775909
 H       -13.1937716121        8.2627962983        3.1240508728
 H       -12.0274856025        9.1541846305        2.0949650797
 H       -14.0581712470        1.4045518414        6.3068679641
 H       -14.7256465263        1.8495733471        4.8464483059
 H       -14.0674903404        3.1086512687        5.7605384680
 H       -11.2696296837        1.8010715369        6.6623266572
 H       -11.7457050333        3.5243260424        6.2611814983
 H       -10.4793226755        2.7783415066        5.3337108807
 H       -10.5489072739       -1.3366637619       -0.0113964893
 H       -11.3212341250       -2.9094194300       -0.4646959887
 H        -9.5527661000       -2.7484548447       -0.4680608035
 H       -12.0114891856       -4.3973028036        1.5927421562
 H       -10.8245655681       -4.6799541457        2.7721588046
 H       -10.3981511565       -4.9395411714        1.1173098203
 Na       -8.8337514078        6.4501904185       -1.2088342778
