117

 C        -8.2033492092       -3.8353999072        2.7156944578
 C        -8.9356829316       -2.6481943194        2.1664832184
 O        -8.3861811357       -1.5699245914        1.8975041329
 C       -10.4243990851       -2.7789099981        1.8050900038
 C       -11.2698704334       -1.8393278899        2.6395112513
 O       -12.1042064607       -1.1915752940        2.0631237263
 C       -11.0221343201       -1.6890856892        4.2083370868
 C       -10.8423378587       -0.2156708424        4.5868386005
 C       -12.1847773592        0.3246500073        4.9780324722
 O       -13.0348899220       -0.3913719703        5.3833295227
 C       -12.4912083114        1.8670867146        5.0634288121
 C       -12.2119218143        2.5892561944        3.7035051164
 O       -11.1046359708        2.4374698645        3.2512581431
 C       -13.3862459266        3.3899183177        2.8811780770
 C       -12.8376157640        4.4461115640        1.9997557622
 C       -12.8636570361        5.8319661025        2.5937405787
 O       -13.2609223575        5.9930097107        3.7369354078
 C       -12.3325180660        6.9679238636        1.6863731156
 C       -10.9859711579        6.5863234947        1.1293997981
 O       -10.6902286121        6.7601057345       -0.0503303144
 C        -9.9626774460        6.1136857066        2.2082566999
 C        -9.2236249662        4.7477136175        1.9292860326
 C        -8.1433688253        4.6938917733        0.9262891666
 O        -7.4964596286        5.6695270815        0.5900155087
 C        -7.8459410400        3.2526536999        0.3212016344
 C        -8.8525190806        3.1793848752       -0.8244635268
 O        -9.6371926251        4.0414789512       -1.1481541029
 C        -8.8169610668        1.8694204893       -1.7276317955
 C        -9.3196486483        2.2017466190       -3.1931665779
 C        -8.0879934356        2.7384318015       -3.9244975288
 O        -6.9872479895        2.3093028386       -3.6260404785
 C        -8.2415258744        3.8724837547       -4.9847564772
 C        -7.8618814274        5.2171111391       -4.2108826875
 O        -8.7302772208        5.8531281234       -3.6309477261
 C        -6.3731951707        5.7070475129       -4.2144507333
 C        -6.0424230585        6.6087343335       -3.0245022194
 C        -6.8303255943        7.8799270570       -2.9898686963
 O        -7.5949038488        8.1558807391       -2.0463641378
 C        -6.6064267457        8.9220320528       -4.1937267519
 C        -7.7022558728        8.4335307269       -5.2794697865
 O        -7.4710901442        7.8849462964       -6.3436810149
 C        -9.1839007781        8.7783843155       -4.8942956625
 C        -6.9364952639       10.3338737405       -3.7269989945
 C        -5.1423859650        8.9129037250       -4.8226239693
 C        -7.0912471819        3.6930239599       -6.1144447547
 C        -9.5777972787        4.0185076039       -5.6832942478
 C        -6.3558634548        3.2198642830       -0.2200578027
 C        -8.1084673932        2.1264890416        1.3835843806
 C       -13.2750114688        7.2186868856        0.4632550408
 C       -12.1926902492        8.2979487918        2.5014478776
 C       -13.9885913171        2.0671418298        5.5313340793
 C       -11.6125667313        2.4141781204        6.1961500426
 C       -10.6459323874       -2.3718923076        0.2688203548
 C       -11.0628353813       -4.1770677771        2.0698904728
 H        -7.2378163585       -3.6899541236        3.0903882470
 H        -7.9942076768       -4.4582911107        1.8316464519
 H        -8.7945923023       -4.3739282400        3.4635526321
 H       -10.0790068413       -2.3410829490        4.4019884147
 H       -11.7845025838       -2.1722504970        4.8104812215
 H       -10.2880658410        0.4162374787        3.7924997318
 H       -10.1928535666       -0.2102277553        5.5219475229
 H       -14.1976590158        3.7578324499        3.4395887716
 H       -13.7128690847        2.5460815416        2.2727401988
 H       -13.3408464009        4.5514264765        0.9420998912
 H       -11.8133724926        4.2351887637        1.6716783293
 H       -10.3760400530        6.2189227223        3.1826484050
 H        -9.1797714145        6.9355695800        2.3038952535
 H        -9.8749999541        3.9721991589        1.8254769144
 H        -8.8799608610        4.4009330203        2.9327822619
 H        -9.3159596543        1.0311676412       -1.2536330331
 H        -7.7644835632        1.5055230555       -1.8390489048
 H       -10.1186143974        2.9813412674       -3.0426303248
 H        -9.7624279769        1.2335235337       -3.6197742240
 H        -6.2364745914        6.3423727310       -5.1707929716
 H        -5.7154337246        4.8585056104       -4.3882987863
 H        -4.9252978918        6.8612651499       -2.8825410429
 H        -6.3818022973        6.0836269346       -2.1131365918
 H        -9.9281002826        8.2330058780       -5.5646323076
 H        -9.3025204949        9.8330995495       -4.9422952396
 H        -9.3662676044        8.5117200309       -3.8693647757
 H        -7.8659884525       10.3906807775       -3.0953660565
 H        -7.0557132896       11.0777974468       -4.5436940133
 H        -6.0744934814       10.7072652780       -3.1031328480
 H        -4.9660098345        7.9702332157       -5.3746048141
 H        -4.3085865907        9.0623981602       -4.1461058408
 H        -5.0568437544        9.6681033296       -5.5738234123
 H        -7.1008863341        4.5619365879       -6.7897581685
 H        -7.5014715512        2.8550996189       -6.6296177634
 H        -6.1377545025        3.5019167099       -5.6998756120
 H        -9.5258059546        4.7311208661       -6.4762865733
 H       -10.4102666032        4.2147444813       -4.9961979103
 H        -9.8369446624        3.0884079690       -6.1433027278
 H        -5.6663971685        3.0340507120        0.5988056893
 H        -6.1729887609        4.2147390918       -0.5679550477
 H        -6.2573653154        2.5889341717       -1.1329833498
 H        -7.4588825999        2.2063928951        2.2562066839
 H        -8.0974368982        1.1102706511        1.0243183958
 H        -9.1411877617        2.2308900872        1.7839616623
 H       -14.3346019236        7.5761829327        0.5893245484
 H       -13.3450243965        6.2730085763       -0.0527379628
 H       -12.6624486655        7.8985206738       -0.1346742092
 H       -11.2223492867        8.2807145542        2.9904550403
 H       -12.9614912373        8.4437381961        3.1806674021
 H       -12.2819408998        9.1244465638        1.7349877228
 H       -14.1598624193        1.9237199951        6.5870806258
 H       -14.7251040315        1.4675297049        4.9586160800
 H       -14.3547755632        3.1354161747        5.4467332465
 H       -11.9066618718        2.0955708055        7.1475518346
 H       -11.7590869658        3.4826213617        6.2130204629
 H       -10.5547520464        2.2032724517        6.0140489159
 H       -11.6916408422       -2.1225716458        0.0560565742
 H       -10.5220967012       -3.2571803791       -0.3210206400
 H        -9.9300439935       -1.6291494973       -0.0910136868
 H       -12.0894232830       -4.2711017396        1.6740105733
 H       -11.0973777748       -4.2721850413        3.1835527278
 H       -10.3999545343       -5.0098239649        1.7500419905
 Na       -8.5909036111        6.2517340965       -1.3301190130
