117

 C        -8.1133934857       -3.8019351831        2.8056272907
 C        -8.9539935582       -2.6894890862        2.0858891985
 O        -8.4121793858       -1.6552132520        1.7964044595
 C       -10.4533649903       -2.8197056136        1.8888529217
 C       -11.2630341607       -1.6765269352        2.6838294413
 O       -12.1450860076       -0.9664639313        2.2203899775
 C       -10.9492156230       -1.5758836402        4.1758327001
 C       -10.8981726336       -0.1504375148        4.6451180924
 C       -12.3290149148        0.3093925317        5.0678638070
 O       -13.1696866681       -0.5216108910        5.3119732086
 C       -12.5671822218        1.9473145188        5.1295376941
 C       -12.2802075567        2.5403506959        3.7477485195
 O       -11.1432423165        2.5289724336        3.2456395377
 C       -13.3702183757        3.2182417881        2.9823847928
 C       -12.8769560548        4.3121588107        2.0591269339
 C       -12.8829976999        5.8692834730        2.6638936251
 O       -13.2523393589        6.0849651649        3.8142570934
 C       -12.2568645091        7.0019186902        1.6643072733
 C       -10.8450193138        6.5599737067        1.1322469922
 O       -10.6525408091        6.5665637267       -0.0455471338
 C        -9.8629035828        6.1328085036        2.1986379304
 C        -9.1693462801        4.7366093640        1.9957221122
 C        -8.1350196506        4.6921415242        0.8727795687
 O        -7.5478649693        5.6759827358        0.4312835005
 C        -7.9110584437        3.3092831750        0.2660320967
 C        -8.8784424217        3.1161136938       -0.9276754535
 O        -9.6363426401        4.0429663971       -1.1747711374
 C        -8.9608924278        1.8532004351       -1.7375899912
 C        -9.2435392904        2.2285349711       -3.2438013004
 C        -8.0019954836        2.7891129791       -3.9337271631
 O        -6.9416238509        2.3004040468       -3.6830725428
 C        -8.2168459339        3.9489963892       -5.0620361568
 C        -7.8162101460        5.2497760345       -4.2569423414
 O        -8.6905576630        5.7811996396       -3.5720444267
 C        -6.3975185177        5.6180644591       -4.2053907621
 C        -5.9119600861        6.5555057671       -3.0707124094
 C        -6.7027393347        7.8516882231       -3.0742752361
 O        -7.5640120811        8.1593238539       -2.3090356343
 C        -6.5580454849        8.8689923015       -4.2374019483
 C        -7.7169814741        8.4918933579       -5.2051475465
 O        -7.3885513418        7.9478408379       -6.2400395776
 C        -9.1884352510        8.7405217086       -4.9282562719
 C        -6.9319137029       10.2516218656       -3.7110584766
 C        -5.1639593640        8.8328079431       -4.8347841259
 C        -7.1961996067        3.6822995593       -6.2005739544
 C        -9.5582470394        4.0825412104       -5.7087619294
 C        -6.4512657043        3.1444933001       -0.1834896563
 C        -8.0590288716        2.2181082325        1.3427592314
 C       -13.3162707703        7.1304443624        0.4807941536
 C       -12.2938374707        8.4066119917        2.4052526569
 C       -14.0621207270        2.1020262453        5.5626846347
 C       -11.5561633826        2.4834708386        6.2374678761
 C       -10.6244358125       -2.4056609250        0.3830683354
 C       -11.0296234498       -4.2279477835        2.1658223386
 H        -7.1242432985       -3.3454355079        3.1869065030
 H        -7.7397060029       -4.6051865099        2.2303726321
 H        -8.6557625427       -4.1363574500        3.7135880695
 H       -10.1048232453       -2.2902979068        4.4141238591
 H       -11.8637586538       -2.1444687731        4.6475661871
 H       -10.4581573459        0.4874944728        3.9245796909
 H       -10.2517589736       -0.1508913500        5.5829049183
 H       -14.0467614044        3.6893710633        3.6801781861
 H       -13.9186439998        2.4122323000        2.4296970742
 H       -13.6040573639        4.4368822718        1.1747254707
 H       -11.9233213188        4.0983869278        1.4789016561
 H       -10.4305332389        6.1572039827        3.1274208174
 H        -9.1777356872        6.9283155362        2.4509144709
 H        -9.9128901995        3.9309622713        1.9453941359
 H        -8.8446938378        4.3905298538        2.9857867482
 H        -9.6892697040        1.1201937386       -1.3682134925
 H        -7.9855490825        1.2962862540       -1.6585206023
 H        -9.9910051991        3.0575278390       -3.1138033833
 H        -9.7227865246        1.3263849063       -3.6509738616
 H        -6.1177572244        5.9918202543       -5.2269224142
 H        -5.8463183112        4.6420927793       -4.1915679987
 H        -4.7967969331        6.6388717862       -3.0888008830
 H        -6.1954046250        6.0647003448       -2.1260802396
 H        -9.8092029606        8.0012599510       -5.4012830829
 H        -9.4924256518        9.8301676883       -5.1226630098
 H        -9.2291142392        8.6408513939       -3.8451544499
 H        -7.8106453751       10.2195747482       -3.0682858049
 H        -7.0798889961       11.0414532925       -4.4760618885
 H        -6.0892117091       10.6064552491       -3.0581304587
 H        -5.0742822618        7.9330582835       -5.4348718332
 H        -4.2838702672        8.8466590969       -4.1440508866
 H        -5.0124201924        9.6943735274       -5.5029860990
 H        -7.0577370178        4.5486318178       -6.7855772726
 H        -7.6822735815        2.9565036976       -6.7661473991
 H        -6.2719118226        3.2621396868       -5.7588648667
 H        -9.5889791851        5.0400564512       -6.3074407165
 H       -10.4213704305        3.9272728130       -5.0766586909
 H        -9.6867007249        3.2808694712       -6.4750258617
 H        -5.8222340029        3.0516344318        0.7099678695
 H        -6.0957308393        4.0170037015       -0.8239835531
 H        -6.4358032203        2.2717365415       -0.8768930773
 H        -7.5313223987        2.3608732248        2.3012871505
 H        -7.8324846317        1.2681549950        0.9548305005
 H        -9.1107359238        2.1651086893        1.6171035697
 H       -14.2347522166        7.6520619018        0.7935935013
 H       -13.6196609752        6.1025893230        0.1046854987
 H       -12.8339464998        7.7671670553       -0.3077285512
 H       -11.4914001913        8.4125855987        3.1425456323
 H       -13.2640294860        8.5849815203        2.8511550666
 H       -12.1862564018        9.2081959235        1.6192064198
 H       -14.3981403926        1.3290975302        6.3423000038
 H       -14.7713154304        2.0801568057        4.6817280813
 H       -14.3163613426        3.0026166553        6.1397789884
 H       -11.8544666583        2.2422734990        7.2721810565
 H       -11.5284445803        3.5676239692        6.2515287203
 H       -10.6378382118        2.0649678790        6.0313670210
 H       -11.6093501211       -2.7383246308        0.0711951134
 H        -9.9883792357       -2.9011195797       -0.3284822692
 H       -10.4613637107       -1.3274081092        0.2654219620
 H       -12.0315111765       -4.3336073528        1.8172295916
 H       -10.9815756379       -4.3915299673        3.2332551778
 H       -10.3764294114       -5.0274658484        1.7272647251
 Na       -8.5695914599        6.3450421937       -1.3145450167
