117

 C        -8.5468225942       12.4012195587       -2.9553130159
 C        -7.7440629395       11.0756880763       -3.1883794003
 O        -8.3996433469       10.0687231142       -3.5219160253
 C        -6.1438599953       11.0730246227       -3.0025533865
 C        -5.8183320668       11.1449652730       -1.5237688110
 O        -6.2613521235       12.1032901098       -0.8845006442
 C        -5.0974250861       10.0054085075       -0.7797423181
 C        -6.0914359836        8.9394673302       -0.3916416800
 C        -5.4630876541        7.5709739753       -0.1696949153
 O        -5.0617759216        6.8319210122       -1.0295933098
 C        -5.6006607318        7.0780668485        1.3693711837
 C        -7.2508438989        7.1115307834        1.6029790848
 O        -7.7534596665        8.0080884662        2.2277869894
 C        -8.1047710321        6.0674582943        0.8817433279
 C        -9.5786428851        6.4878071938        0.4126209632
 C       -10.4353198794        5.1613188786        0.3114037152
 O       -10.0618909913        4.0636714498        0.6384828427
 C       -11.8353180554        5.4982981444       -0.5025980582
 C       -12.8191668224        4.2270230579       -0.2398960393
 O       -12.5013831249        3.2162993992       -0.7714329660
 C       -14.0938675881        4.3011226987        0.7024920806
 C       -14.7289448192        2.9532185391        0.7884137765
 C       -13.9744842921        2.0419550462        1.7740438256
 O       -12.9261148550        2.4158703366        2.2816859788
 C       -14.5553131914        0.6091160980        2.2334221306
 C       -13.5076928011       -0.4655285796        1.7366966144
 O       -12.5295744490       -0.1767270727        1.0645980681
 C       -13.8039773725       -1.9116687048        1.9570279789
 C       -12.8131906531       -2.8811610651        1.2736110713
 C       -13.0017157269       -2.6630335093       -0.2476521025
 O       -14.0845591842       -2.5287528936       -0.8048731262
 C       -11.8143122535       -3.0867012356       -1.1969682932
 C       -10.6277192047       -2.1381798704       -0.8853446933
 O       -10.4952439197       -1.8227028896        0.2780451346
 C        -9.5973701040       -1.7609169274       -2.0148358119
 C        -8.3605605630       -0.9902746625       -1.4762346479
 C        -8.7567490009        0.3176332784       -0.7444742918
 O        -9.8585021886        0.9201290457       -0.9207566933
 C        -7.6625517777        0.8470137178        0.2540008092
 C        -8.1315796319        0.6424453879        1.7861865935
 O        -9.0966276366        1.2411644046        2.1756725723
 C        -7.3379953031       -0.2292265034        2.7070644957
 C        -6.2036544971        0.3327414191       -0.0905434133
 C        -7.6066394319        2.3905769193        0.0937894722
 C       -11.1504791235       -4.4426569199       -0.8806077964
 C       -12.2366094232       -2.9990826505       -2.6677150335
 C       -14.6248020345        0.5376363148        3.7707056139
 C       -15.8853947826        0.2209409653        1.4559626098
 C       -12.4050535925        6.8619590533       -0.1535948496
 C       -11.3456857669        5.5466164759       -2.0708965880
 C        -5.0310381637        5.6797200416        1.7090344794
 C        -5.1065981996        8.0822580873        2.3697998027
 C        -5.6394968577        9.8124881030       -3.7561822537
 C        -5.6829760283       12.3907035665       -3.6827223542
 H        -8.1079397630       13.1153314021       -3.6833106653
 H        -8.2230893468       12.7060188174       -1.9070457971
 H        -9.5597248502       12.1836587005       -3.1139746058
 H        -4.5927011395       10.4518827806       -0.0127102543
 H        -4.2693831845        9.5215169212       -1.4047824367
 H        -6.8372416163        8.7857175015       -1.2692980423
 H        -6.6029833082        9.4151226825        0.4538308263
 H        -8.2882775854        5.3033078031        1.6679714307
 H        -7.4837140468        5.5972216587        0.1174021191
 H        -9.6174331165        7.0671126568       -0.5804352314
 H        -9.9406327578        7.1569078259        1.1886915222
 H       -14.6831390715        5.0910951571        0.2343395820
 H       -13.6672486610        4.6748754335        1.6841709952
 H       -14.4489038388        2.3882600430       -0.1449407765
 H       -15.7902835412        2.9731879126        0.9531658360
 H       -14.7787941638       -1.9650753193        1.4222011214
 H       -14.0655383058       -2.1465118971        3.0281099452
 H       -13.2005741153       -3.9124935836        1.4314066195
 H       -11.7850600960       -2.5652729495        1.5718914964
 H       -10.1761070286       -1.0939639250       -2.6687504462
 H        -9.2706973275       -2.6678952674       -2.6123543864
 H        -7.6679667159       -0.8023149366       -2.2771792300
 H        -7.7923861638       -1.4298518478       -0.6937899234
 H        -7.1561833957       -1.1552577660        2.1737280665
 H        -7.8683970879       -0.4181736471        3.7789853333
 H        -6.3818528608        0.1930231056        2.8753241087
 H        -5.9596204066        0.5093673952       -1.1077476755
 H        -6.0229024152       -0.7593439773        0.0652430181
 H        -5.4351260463        0.9015568467        0.4341511723
 H        -8.5934027712        2.8503330812        0.1390826394
 H        -7.1619322377        2.6027046987       -0.8096643075
 H        -7.0470738887        2.7597914446        0.9511157659
 H       -11.0753305448       -5.1055580065       -1.7877776871
 H       -11.6067412761       -5.1191431195       -0.0835258065
 H       -10.0860225056       -4.3177533795       -0.6178077045
 H       -12.9213272774       -2.1379220975       -2.7616390021
 H       -12.6489304172       -3.9323005838       -2.9161901230
 H       -11.3911252613       -2.6747573168       -3.2436577368
 H       -15.2853706967        1.3303318375        4.1558271149
 H       -13.6330457761        0.6727371715        4.1708070326
 H       -14.9070702225       -0.4375728448        4.1551086994
 H       -16.5928240844        0.9988437474        1.6723843180
 H       -16.3761472479       -0.7183187616        1.7424362695
 H       -15.8218253642       -0.0246728777        0.4236601916
 H       -13.1626697573        7.0804641366       -0.8717826370
 H       -11.6101856618        7.6294033289       -0.1304726539
 H       -12.8937663262        6.8382977897        0.7977553349
 H       -11.4966199793        4.6010676642       -2.5770842706
 H       -10.3853621711        6.0157594108       -2.0843158333
 H       -11.9559812158        6.3319366573       -2.5546989821
 H        -3.9525098295        5.7740464782        1.6966387357
 H        -5.3615649585        4.9472968069        0.9815023369
 H        -5.3631283668        5.3592269242        2.6839524543
 H        -5.6145572949        9.0238908014        2.3958203837
 H        -4.0938949265        8.3353531871        2.2646814941
 H        -5.1908425423        7.7682077318        3.4066802135
 H        -6.0602250873        8.9449765114       -3.3103500244
 H        -4.5442788971        9.8733083725       -3.9931269170
 H        -6.0616539698        9.6296911426       -4.7687868545
 H        -5.5599559103       13.2380922132       -2.9986379619
 H        -6.4780339140       12.6197581054       -4.3809039333
 H        -4.7507491454       12.3103240415       -4.1578845884
 Na      -11.1264468125        1.8254841848        0.9517370619
