117

 C        -8.0233166366       -3.3843992192        3.0439888335
 C        -8.8995826413       -2.4944380786        2.2006310588
 O        -8.4752694308       -1.7881462816        1.2735820467
 C       -10.5139815227       -2.6165546981        2.2155017697
 C       -11.0980148460       -1.3037954362        2.8936556916
 O       -11.5654267978       -0.3465271617        2.3307589016
 C       -10.9889109757       -1.3430296620        4.3606436588
 C       -11.0183601371        0.0283627952        4.9640800558
 C       -12.4798182039        0.4583931002        5.0120520605
 O       -13.3931468649       -0.2684894236        4.7972285992
 C       -12.7874066492        1.9456434205        5.5102461556
 C       -12.5544615089        2.7585885419        4.1599595357
 O       -11.4538015506        2.7786615649        3.6446352459
 C       -13.7551423441        3.3654091866        3.4226671335
 C       -13.5045706589        4.3440119411        2.2506074655
 C       -12.8687997029        5.6240402323        2.7323234367
 O       -12.7833977924        5.9971803917        3.8801369560
 C       -12.3306439001        6.6537910451        1.5765675216
 C       -10.8658797940        6.4368657291        1.1248405562
 O       -10.5407823768        6.4999666638       -0.0792901150
 C        -9.6996844791        6.1713633478        2.2040856137
 C        -9.2314549061        4.7647099159        1.9697355179
 C        -8.2423661370        4.6255284705        0.8147970221
 O        -7.5428206830        5.5572002691        0.4447714469
 C        -8.0229760884        3.1990451807        0.1346688260
 C        -8.8534874767        3.1191456065       -1.2144151148
 O        -9.5044801469        4.0478133656       -1.6376998330
 C        -8.9725019670        1.7351065780       -2.0079945671
 C        -9.2269442988        2.0306158092       -3.4519191339
 C        -8.0180446148        2.6814874603       -4.0928818466
 O        -6.8579684123        2.3103911929       -3.8833459049
 C        -8.1792938906        3.8711720757       -5.1051810239
 C        -7.6998896894        5.1318746617       -4.3105594269
 O        -8.5198050574        5.7550134110       -3.6879870919
 C        -6.1880278145        5.5589137612       -4.3698041168
 C        -5.8523309855        6.5249397752       -3.1963394539
 C        -6.6405490597        7.7813119122       -3.1833734134
 O        -7.4343873961        8.1385665029       -2.3215977859
 C        -6.3903002487        8.7790828683       -4.3512185321
 C        -7.5243412196        8.4138913925       -5.4470542452
 O        -7.2150356821        7.7376475152       -6.3968125886
 C        -8.9346291845        9.0482420815       -5.1482748097
 C        -6.5710565054       10.2682401947       -3.9898857098
 C        -5.0149493641        8.6552566294       -5.0374852022
 C        -7.1723329169        3.6103205690       -6.2718298822
 C        -9.7172135294        4.0715157585       -5.5102148428
 C        -6.5772927112        3.0180668294       -0.2538926059
 C        -8.5161707254        2.0440479762        1.0041312329
 C       -13.3922762576        6.8496121651        0.5184202702
 C       -12.1920509441        8.0338964361        2.3168648281
 C       -14.2253753433        1.9755272329        6.1434324698
 C       -11.7659030105        2.3935164582        6.5998513407
 C       -10.9051276150       -2.6365541157        0.7336082556
 C       -11.0343949148       -3.9657974819        2.8461872678
 H        -7.0072681617       -3.3262190569        2.7296972586
 H        -8.3697513392       -4.4876687455        3.0057531796
 H        -8.0841015777       -3.0882494747        4.1047909243
 H       -10.0375561890       -1.9062118183        4.5679213041
 H       -11.8929782003       -1.9747300631        4.7106738250
 H       -10.5312858573        0.7404202949        4.2905962690
 H       -10.6137893560       -0.1083177859        5.9452464954
 H       -14.4412484518        3.8728803020        4.1792993904
 H       -14.2883325892        2.5318099925        2.9919185780
 H       -14.4329911327        4.5277057813        1.7120489695
 H       -12.6745996325        3.9796832366        1.4991030795
 H       -10.0689757755        6.4231264731        3.2228141875
 H        -8.8841832821        6.8027974862        1.9669000888
 H       -10.0308763434        3.9221540579        1.9974223731
 H        -8.6941258707        4.5080705573        2.8759287744
 H        -9.7751615905        1.1619527013       -1.4581247479
 H        -8.1363068406        1.0336475103       -1.9482158385
 H       -10.0559937803        2.7321719852       -3.3303078219
 H        -9.4423649398        1.1494544258       -4.0776786903
 H        -6.1145710208        6.1020843932       -5.3192376404
 H        -5.4061287489        4.7229916558       -4.4900890966
 H        -4.8269174742        6.8520562276       -3.1358022780
 H        -5.9960643162        5.9123988345       -2.2399100566
 H        -9.7778968460        8.6429996318       -5.7363366540
 H        -8.8531275323       10.1162031109       -5.2465406608
 H        -9.0313019758        8.9308355579       -4.0328484484
 H        -7.4578512244       10.3512629111       -3.2992904789
 H        -6.6680994825       11.0064335959       -4.8234687755
 H        -5.7794842909       10.5918081102       -3.2945037904
 H        -4.6560348286        7.6683794029       -5.3289358960
 H        -4.2095683079        9.0227347516       -4.4363450341
 H        -5.0376088468        9.3421625370       -5.8916884231
 H        -7.1313301377        4.4378713208       -6.9352986823
 H        -7.4963178393        2.7341624602       -6.8204014484
 H        -6.2924234266        3.2969879209       -5.8116408529
 H        -9.8128575056        4.7366914597       -6.3531051398
 H       -10.2169233346        4.6160413295       -4.6742238068
 H       -10.2629917411        3.1246895062       -5.6259798770
 H        -5.9765245437        2.8528986077        0.6823819950
 H        -6.2119686353        3.9300333030       -0.7868944943
 H        -6.3307380488        2.1277362786       -0.8427950994
 H        -7.8202947012        1.8226036379        1.7813338339
 H        -8.5178492495        1.1023025106        0.4030672366
 H        -9.4332389301        2.2006634083        1.5239201324
 H       -14.2864790497        7.2861793125        0.9970894146
 H       -13.5411874238        5.9414628527       -0.0844567033
 H       -13.2303305083        7.6683257639       -0.2155576791
 H       -11.5060267110        7.9458234557        3.1892468721
 H       -13.2264780174        8.3287432110        2.6765657394
 H       -11.7628216680        8.7529758416        1.6773500442
 H       -14.1027219379        1.9954945392        7.2607423907
 H       -14.8206991225        1.0822871726        5.8251667597
 H       -14.7556148528        2.9601505125        5.8846770132
 H       -11.7967708400        1.6780134895        7.3827372173
 H       -12.0184203621        3.3546198643        6.9709148906
 H       -10.7281000609        2.3882471647        6.2134051882
 H       -10.2904552019       -3.2126357846        0.0431479256
 H       -10.8845344313       -1.5995627453        0.3466985979
 H       -11.9302209672       -2.9297595906        0.5949054666
 H       -12.1343343304       -4.1431450831        2.6684914256
 H       -10.8141735119       -4.1471206847        3.9155722236
 H       -10.5917273222       -4.7740637481        2.2743339771
 Na       -8.5417572347        6.4225098158       -1.4179294754
