117

 C        -8.0932640422       -3.2650861190        3.0422361352
 C        -8.9693274159       -2.5355290415        2.0475367321
 O        -8.4649209293       -1.7570472184        1.2360331223
 C       -10.5128538620       -2.6323811087        2.1572886826
 C       -10.9748801414       -1.3017225906        2.9323473594
 O       -11.3498741644       -0.3480838996        2.3027085956
 C       -11.0197364572       -1.3229752614        4.5339109512
 C       -11.0890604077        0.1303355028        5.0643687487
 C       -12.5664283251        0.5430421610        5.0856354456
 O       -13.4295483832       -0.1833742583        4.6764389949
 C       -12.8466029546        1.9978880273        5.5683020156
 C       -12.5534335404        2.8122902192        4.2300703907
 O       -11.4113129495        2.8593144399        3.8263039432
 C       -13.8141283084        3.3894455157        3.4909522240
 C       -13.5672236910        4.3349579689        2.3113895760
 C       -12.8015987965        5.6571086061        2.7206376846
 O       -12.6404810966        5.8410101367        3.9198116081
 C       -12.3860772186        6.7259751733        1.6878369950
 C       -10.9392674652        6.4017594763        1.1231135545
 O       -10.6231330692        6.5647960750       -0.0530942936
 C        -9.8288398822        6.0549953075        2.1774147121
 C        -9.2616838789        4.6818968694        1.8532865744
 C        -8.2738159890        4.5515454260        0.6974721947
 O        -7.6313909651        5.5309185966        0.3667451239
 C        -8.0144172097        3.0851039866        0.0971557002
 C        -8.8943178003        3.0747462774       -1.1923839739
 O        -9.4007770812        4.0603134248       -1.6409039509
 C        -9.0705363988        1.7612302476       -1.9775497362
 C        -9.1771048852        1.9720601332       -3.5506275400
 C        -7.9469665882        2.6635429398       -4.1436746122
 O        -6.8590878262        2.2324771050       -3.8466479892
 C        -8.1513272568        3.8965084551       -5.1009991961
 C        -7.7690019231        5.1950555589       -4.3701544900
 O        -8.5520560700        5.8830353379       -3.7604428077
 C        -6.3211754027        5.4923338876       -4.3499140805
 C        -5.8697420407        6.4955903171       -3.2586119513
 C        -6.5917684871        7.8661368042       -3.2441912703
 O        -7.3874181194        8.1976805605       -2.3274789377
 C        -6.3993471647        8.8182277967       -4.4085187102
 C        -7.4685688892        8.4318230578       -5.4366220993
 O        -7.2365191763        7.7004352585       -6.3962972483
 C        -8.8497632938        9.0481525015       -5.2685455473
 C        -6.4841573951       10.2615050798       -3.9868740154
 C        -4.9691916183        8.6178800547       -5.0604620214
 C        -7.2227936909        3.5582779660       -6.3527655029
 C        -9.5912543724        4.0758669151       -5.5883808859
 C        -6.4985937912        2.9483138134       -0.1537839677
 C        -8.5377987149        1.9769319238        1.0704273842
 C       -13.4388083432        6.7145840527        0.5210445741
 C       -12.1871317102        8.1145753771        2.4095561381
 C       -14.2559108081        1.9406590471        6.2125021980
 C       -11.8243679132        2.4879389487        6.5906940821
 C       -10.9882743755       -2.6584374579        0.6842363160
 C       -10.9665985008       -3.8248666030        3.0042343685
 H        -7.0426427483       -3.2674197600        2.7443396100
 H        -8.4660310693       -4.3292790603        3.0911580875
 H        -8.1885639319       -2.8661080191        4.0804623071
 H       -10.1410626488       -1.8747987475        4.9340534073
 H       -11.8994089096       -1.8100150282        4.7665666628
 H       -10.5838297821        0.8092245966        4.3639736590
 H       -10.7097898534        0.1026489782        6.0112225284
 H       -14.5997460228        3.8634268657        4.1731758031
 H       -14.2823216411        2.4734438238        3.0327812535
 H       -14.5731438359        4.6501417831        2.0353316929
 H       -13.0609751823        3.8948866839        1.4873123913
 H       -10.3026304811        6.0527438328        3.1195218983
 H        -9.0964050778        6.8921149517        2.1113745209
 H       -10.0956991222        3.9824879182        1.7124804614
 H        -8.8578185686        4.3356392116        2.8741436974
 H        -9.9072003469        1.2149010205       -1.5084373208
 H        -8.2629629952        1.0262113537       -1.8537386308
 H       -10.0960053536        2.4352144032       -3.6799339922
 H        -9.1324843029        1.0231246652       -4.0257306476
 H        -5.9782083795        5.9156986081       -5.2993835859
 H        -5.8380370251        4.5271961694       -4.2906976967
 H        -4.7950286923        6.6592409533       -3.2838961029
 H        -6.0298239085        6.0313257121       -2.3071884525
 H        -9.4357838479        8.7167968056       -6.1952851208
 H        -8.6815972904       10.0999785469       -5.3385791628
 H        -9.3395005531        8.9053894806       -4.3001134927
 H        -7.3378931960       10.5139140603       -3.3256749183
 H        -6.5882042467       10.8735382232       -4.8849553615
 H        -5.5881003667       10.5830662250       -3.4461332790
 H        -4.7164090661        7.5906787977       -5.4503992026
 H        -4.1593337329        8.7900210559       -4.3287979715
 H        -4.8026568601        9.3401996482       -5.8568613326
 H        -7.1029798827        4.4128853799       -7.0229054050
 H        -7.7492756228        2.8045337964       -6.9078484721
 H        -6.3393746915        3.0978348737       -6.0248218490
 H        -9.7243897893        5.0007266998       -6.1767544848
 H       -10.2835789252        4.2413655962       -4.6890904036
 H        -9.9285720022        3.1310815397       -6.0889570999
 H        -5.9373764983        2.6490500915        0.7728350531
 H        -6.1515840688        3.9317919944       -0.5187639049
 H        -6.1898567735        2.1399470299       -0.9046500224
 H        -8.1219228343        2.0556902705        2.0616990696
 H        -8.2912164249        0.9859711876        0.7258201723
 H        -9.6238782011        2.0705955580        1.2121509999
 H       -14.4032310690        7.2672966992        0.7181991154
 H       -13.5127637408        5.6843484789        0.1551371445
 H       -13.1161418273        7.2172968593       -0.4132273461
 H       -11.3163678754        8.1797007608        3.0906716160
 H       -13.0559676615        8.3981381845        2.9114646845
 H       -11.9194243888        8.7958040360        1.5384509227
 H       -14.1547716602        1.8533009873        7.3121683759
 H       -14.7937011577        1.0360746515        5.8236932769
 H       -14.8381607028        2.8997315327        5.9505684976
 H       -11.8690134309        1.8570870439        7.4477860740
 H       -12.0587049530        3.5331751525        6.8092311813
 H       -10.7786284035        2.4828814666        6.1872961521
 H       -10.2134947259       -2.9711915937       -0.0301304396
 H       -11.3392198107       -1.7027682581        0.3099988232
 H       -11.8016459180       -3.3762438363        0.5134179730
 H       -12.0499273359       -3.8531855683        3.1357652819
 H       -10.5119503270       -3.7966292930        3.9933970900
 H       -10.7285707752       -4.7616020351        2.5571674851
 Na       -8.4131271844        6.3434177526       -1.3943851418
