117

 C        -8.0759757638       -3.1921168883        3.0791670060
 C        -8.9511062300       -2.4509428554        1.9946493224
 O        -8.4212581211       -1.7430907422        1.2102484676
 C       -10.5103583918       -2.6400881225        2.1731950886
 C       -10.9430088002       -1.3314434356        2.8919689581
 O       -11.1017845449       -0.2892061165        2.2817039835
 C       -10.9036077349       -1.3446931934        4.4774376274
 C       -11.1127924617        0.0810063360        5.1095641374
 C       -12.5831245394        0.5731056835        5.1307153780
 O       -13.5076476183       -0.0772850846        4.6020223890
 C       -12.8798397032        2.0582603340        5.6371490094
 C       -12.6725992240        2.8467516990        4.3001136117
 O       -11.5102179842        3.0555331100        3.9419593174
 C       -13.8735965362        3.3822943209        3.5392780701
 C       -13.5558368137        4.3003677405        2.3680746664
 C       -12.7843006678        5.6621593734        2.8583375066
 O       -12.4363715560        5.7460016245        4.0065002541
 C       -12.3439887129        6.7061348487        1.6905336236
 C       -10.9422008379        6.4528556758        1.1061689958
 O       -10.7568151693        6.5986961238       -0.0626262969
 C        -9.9143873082        5.9229146258        2.1145224698
 C        -9.3540674261        4.4873462289        1.8731717709
 C        -8.2979859830        4.4160076476        0.7793493523
 O        -7.6337418420        5.3649554263        0.3536415016
 C        -8.0702096241        3.1056330262        0.1447162253
 C        -8.8449378971        3.0608860144       -1.2731587348
 O        -9.2900688823        4.1402669269       -1.6924158773
 C        -9.0734058982        1.7224262815       -1.9536526254
 C        -9.1966365100        1.8535129611       -3.5036146776
 C        -7.9672095132        2.6060103743       -4.0958230696
 O        -6.8300986812        2.3040536186       -3.8405178103
 C        -8.2255156050        3.8414209084       -5.1421371087
 C        -7.7393324878        5.1608800152       -4.3546694324
 O        -8.6382170559        5.8767166102       -3.8934376749
 C        -6.2267919136        5.5106248260       -4.2705195110
 C        -5.8667506275        6.4802349108       -3.1880504464
 C        -6.5432938918        7.8980120428       -3.2912646397
 O        -7.2888525555        8.1675621605       -2.3707035042
 C        -6.2896551506        8.9101623107       -4.4576932182
 C        -7.4358118953        8.5147936468       -5.6127713445
 O        -7.2272792969        7.5985260403       -6.3672647116
 C        -8.8592552548        9.0857086337       -5.4218884242
 C        -6.4162140131       10.3402384760       -3.9252707620
 C        -4.8869064941        8.5741258033       -5.1376036425
 C        -7.3053299845        3.6003760498       -6.4245590067
 C        -9.5989027529        4.0597265603       -5.7319357713
 C        -6.5201783745        2.8784674676       -0.0997408388
 C        -8.5094378379        1.9154724428        1.0753363894
 C       -13.3445150408        6.7079714118        0.5311900618
 C       -12.3265700373        8.1023856923        2.3602401261
 C       -14.3297817337        2.0970134823        6.1751338538
 C       -11.8381022989        2.6062536602        6.6549100190
 C       -11.2197376288       -2.6718737839        0.7766320894
 C       -10.9174839788       -3.8066562237        3.0565718316
 H        -6.9728630878       -3.1026516927        2.8297944224
 H        -8.3383374442       -4.1985445377        3.1247517451
 H        -8.2374990070       -2.8181150596        4.1076657395
 H        -9.9484138853       -1.6943116161        4.7437141557
 H       -11.6634161551       -1.9813519784        4.8079652147
 H       -10.5361211516        0.8109833722        4.5853833165
 H       -10.8262425803       -0.0779612264        6.1775921342
 H       -14.4334310779        4.0182993627        4.2109775123
 H       -14.5492950858        2.5145046748        3.2636177642
 H       -14.5535342970        4.6224970432        2.0376381788
 H       -12.9771829640        3.9198358288        1.6175161696
 H       -10.4314366262        5.9410403869        3.0589416556
 H        -9.1140139709        6.7084528485        2.0672157078
 H       -10.1377980503        3.8206701919        1.5976505050
 H        -9.0839462684        4.2066971861        2.9377447361
 H        -9.9336850833        1.2743613252       -1.4772546101
 H        -8.2930984155        0.9813059452       -1.7526501248
 H       -10.1303477235        2.3754659650       -3.6249835212
 H        -9.2473772756        0.8912110257       -3.9536555711
 H        -5.7340505907        5.9350895319       -5.1519984883
 H        -5.8097223129        4.5638082346       -4.1207235273
 H        -4.7738076929        6.6027974524       -3.1304553838
 H        -6.1441839495        6.0943518041       -2.2604288248
 H        -9.3902372630        8.7465542450       -6.2699932103
 H        -8.9033531759       10.2063601796       -5.3311385327
 H        -9.2477993041        8.7007391907       -4.4995820995
 H        -7.3376055849       10.4879477341       -3.4314309965
 H        -6.5181779095       10.9232823736       -4.8205743323
 H        -5.6210806946       10.7574372220       -3.3143267887
 H        -4.9094143899        7.6259586146       -5.6890749992
 H        -4.0413736152        8.4198913773       -4.4084706162
 H        -4.5561540815        9.3263407191       -5.8714223740
 H        -7.2218366824        4.5423612247       -6.9815439284
 H        -7.7542020344        2.8780247322       -7.0859744657
 H        -6.3023179038        3.2062089575       -6.0751291981
 H        -9.7054178165        5.0521483195       -6.2608882285
 H       -10.3620271410        4.1264192015       -4.9552138384
 H        -9.8098569270        3.1617228642       -6.3587981916
 H        -5.9413309191        2.5032412080        0.7413335187
 H        -6.0417283600        3.7818781476       -0.5293091529
 H        -6.4506246876        2.0646862884       -0.8425541310
 H        -8.3796409410        2.1242445109        2.1606821435
 H        -7.9417781851        1.0486627001        0.8720061188
 H        -9.5722203461        1.6512567200        0.9491887137
 H       -14.2646323912        7.2421000525        0.7563033279
 H       -13.4734466152        5.7324459999        0.0275076562
 H       -12.9565498019        7.2682631529       -0.3309159337
 H       -11.4722387988        8.1867616749        3.0085746837
 H       -13.2086930329        8.2448301488        2.9622437980
 H       -12.1557408129        8.8664691620        1.5748467417
 H       -14.3419188814        1.6561626805        7.1992357863
 H       -14.9662963113        1.4446937991        5.5549392853
 H       -14.6786041414        3.0936119420        6.1209071393
 H       -11.7525443318        1.9555788083        7.5728881932
 H       -12.1530529711        3.6629389731        6.8509881012
 H       -10.8811334850        2.7265970574        6.1907665032
 H       -10.5125295055       -2.8391218890       -0.0362252621
 H       -11.7821387334       -1.8047859712        0.4696496509
 H       -11.8663165956       -3.5665939907        0.6897956338
 H       -11.9278586947       -3.6770686982        3.2858174516
 H       -10.4146831622       -3.8003573764        3.9943232946
 H       -10.8242225653       -4.8005588765        2.6238658354
 Na       -8.4705661032        6.3150493101       -1.4025396164
