117

 C        -7.9824933614       -3.1338434640        3.0582826736
 C        -8.9403224322       -2.4423524780        2.0520680195
 O        -8.4845828253       -1.7538069526        1.1507836490
 C       -10.5076930411       -2.6217106930        2.2930584004
 C       -10.7843371883       -1.1671913833        2.9023110705
 O       -10.9266188113       -0.1429861904        2.2575545051
 C       -10.8530731867       -1.2498999233        4.4230906220
 C       -11.1583733808        0.0413470120        5.1617550120
 C       -12.5912802403        0.5793892481        5.0888344059
 O       -13.5286945000        0.0120111076        4.6036937999
 C       -12.8831831675        2.0828044906        5.6217508387
 C       -12.7186398857        3.0042250772        4.3773278978
 O       -11.6036729546        3.2460113496        3.9413395609
 C       -13.9808667194        3.4910512644        3.6225387771
 C       -13.5168433685        4.3586041156        2.4785873380
 C       -12.6846294176        5.5244275076        2.8519555435
 O       -12.2901104835        5.7745141632        3.9517361696
 C       -12.4186204044        6.6156130688        1.6995250216
 C       -10.9656994851        6.3379933500        1.1168813609
 O       -10.6954602265        6.5946495358       -0.0451971005
 C        -9.8023905746        5.9258695192        2.1353652954
 C        -9.4576366645        4.4160812714        1.8363900878
 C        -8.3290953349        4.3041826686        0.8529066758
 O        -7.6714419555        5.2977283071        0.5756128570
 C        -8.0854364993        2.9275881213        0.1401049177
 C        -8.8038992621        2.9967854552       -1.2311373221
 O        -9.1212703897        4.0501421836       -1.8044833919
 C        -8.9946000104        1.7526892280       -1.9506657519
 C        -9.1639450948        1.9143657505       -3.4844605709
 C        -8.0441622814        2.6538180692       -4.1696483219
 O        -6.8841917277        2.4129655489       -3.8086881757
 C        -8.2581389528        3.8083746024       -5.2471486594
 C        -7.7588104906        5.0463661615       -4.3656500012
 O        -8.5917228731        5.8454245020       -3.9665382165
 C        -6.2544865762        5.3943296680       -4.2399253814
 C        -5.8509044998        6.4810878697       -3.1986810245
 C        -6.5280260567        7.8718953010       -3.2775677166
 O        -7.3125465907        8.2469243345       -2.4675887394
 C        -6.2771620611        8.8247775749       -4.5441440692
 C        -7.4153695774        8.4266040102       -5.5192816925
 O        -7.1362749486        7.5824444091       -6.3481889119
 C        -8.7514034586        9.1554269588       -5.5166472855
 C        -6.3316664868       10.2709475494       -3.9894447789
 C        -4.9058225904        8.6400901318       -5.1675376029
 C        -7.2307055732        3.6387655125       -6.4029016418
 C        -9.6898904671        3.9939270127       -5.7289230815
 C        -6.5501303405        2.7828715341       -0.1621096710
 C        -8.5333378732        1.6757380591        1.0100379845
 C       -13.3865737676        6.7106712168        0.5543534608
 C       -12.4766669980        8.0956366437        2.3652597101
 C       -14.3529123086        2.2546243396        6.1633830213
 C       -11.9261695121        2.6012886256        6.7323611706
 C       -11.3743622066       -2.6908060424        0.9278305486
 C       -10.8834503885       -3.9205902214        3.0218661081
 H        -6.9648535424       -2.8394952984        2.9260521004
 H        -8.0887668512       -4.2138171952        3.0849628605
 H        -8.2873640999       -2.8074148077        4.0317403229
 H        -9.8807222525       -1.5365820165        4.7096092931
 H       -11.6433251682       -2.0602394807        4.5913484223
 H       -10.5209302889        0.8010656079        4.7134340040
 H       -10.8951015175       -0.1834634556        6.2669593638
 H       -14.7036552569        3.9489662725        4.2494386040
 H       -14.3860154682        2.5699918728        3.2467779400
 H       -14.2899066780        4.7148062364        1.8222339574
 H       -12.7093318692        3.7636923579        1.9576597613
 H       -10.1671825936        6.1092296958        3.2002098153
 H        -8.9936941904        6.5482171976        1.8004508204
 H       -10.3476252713        3.7660570148        1.6423136647
 H        -9.0676302371        4.1257452261        2.7676797890
 H        -9.8898293842        1.2349443879       -1.5900912575
 H        -8.2348563981        1.0063045556       -1.7720504782
 H       -10.1894774489        2.3643594475       -3.5884081692
 H        -9.2156096152        0.8536639639       -3.8305325027
 H        -5.8858986609        5.8612619375       -5.1411748465
 H        -5.6970808775        4.4436234199       -4.1154360344
 H        -4.7954190095        6.6920347074       -3.3386341686
 H        -5.9669986243        6.1027975503       -2.1560898599
 H        -9.2295090070        8.9022004999       -6.4086639106
 H        -8.6874318247       10.2390839857       -5.3762349026
 H        -9.2890216759        8.7699235487       -4.6526188539
 H        -7.2828269857       10.3982505410       -3.5257391962
 H        -6.3099989782       11.0301955253       -4.7481622016
 H        -5.5456197364       10.4762550104       -3.2943148229
 H        -4.8616905952        7.8929959680       -5.9402005998
 H        -4.1191870614        8.3872759025       -4.4594115974
 H        -4.6182932728        9.5613493912       -5.7067047521
 H        -7.2720264400        4.5659135870       -7.0027540538
 H        -7.5279773835        2.7917421173       -7.0797507282
 H        -6.1983568210        3.4662494902       -5.9789794702
 H        -9.7741229549        4.9039989382       -6.3141115793
 H       -10.3052008267        4.2206526992       -4.8891872606
 H       -10.0340767580        3.1255562387       -6.2640943860
 H        -5.9232660190        2.6780070801        0.7035392670
 H        -6.2528410048        3.7023426752       -0.6734514346
 H        -6.3244889213        1.9634321217       -0.7719240651
 H        -8.4407789015        1.9159175137        2.0792927771
 H        -7.9919613708        0.7148739655        0.8467659397
 H        -9.5816865339        1.4648376698        0.8322471979
 H       -14.3948071309        6.9903445076        0.8038671268
 H       -13.3994147053        5.8987525965       -0.1815664310
 H       -13.0345056988        7.4877350955       -0.1092038527
 H       -11.7079784110        8.1447720878        3.1127552794
 H       -13.4409405754        8.2330011579        2.9445337436
 H       -12.2745987905        8.8185961602        1.6738594938
 H       -14.5213183541        1.4846262669        6.8944110270
 H       -15.0912865034        2.1264748538        5.4272597395
 H       -14.3634904994        3.2626752125        6.4772220230
 H       -11.8417164590        1.8896301354        7.5972870406
 H       -12.2862513518        3.5999766662        6.9837667398
 H       -10.9543914586        2.8300456666        6.3084038714
 H       -10.7883159751       -2.7069645297        0.0158699392
 H       -12.0744616173       -1.8627081492        0.7687180686
 H       -11.9047175738       -3.6230217194        0.8428840660
 H       -11.9309420144       -3.9546363958        3.2591068134
 H       -10.3882373398       -4.0640269729        3.9611846891
 H       -10.6462100960       -4.7755336444        2.3986081461
 Na       -8.6698277587        6.3963334862       -1.4502417129
