117

 C        -7.8322884010       -2.9542956811        2.7521402769
 C        -8.9434814351       -2.4428955567        1.8637519774
 O        -8.7068008248       -1.9160977297        0.8116641707
 C       -10.3830163437       -2.3747538259        2.4046133667
 C       -10.6482632261       -1.1017730110        3.1928209373
 O       -10.5272518629        0.0093419049        2.6612862195
 C       -11.1189571198       -1.1722788281        4.6370526417
 C       -11.2392173698        0.2830891555        5.0423574916
 C       -12.6679944863        0.7574108915        5.1150015234
 O       -13.5895340321        0.1679254860        4.5749255803
 C       -12.9587017931        2.2138096416        5.7889477324
 C       -12.7138119912        3.0926380529        4.5882891131
 O       -11.5581779870        3.1753228024        4.2002859810
 C       -13.8866304014        3.6481922465        3.7919818503
 C       -13.5911378536        4.3891990042        2.5004159216
 C       -12.7669459632        5.7208577487        2.8318880690
 O       -12.3177273289        5.8221151076        3.9460937920
 C       -12.3718553892        6.6909300296        1.6121377598
 C       -10.9310213795        6.4330271986        1.0791195540
 O       -10.6862615109        6.6007545303       -0.0742351901
 C        -9.8423493781        5.7564777360        2.0411221893
 C        -9.6440840051        4.2584574903        1.7239464516
 C        -8.4102458297        4.0710258182        0.8003259260
 O        -7.6744886947        5.0216154319        0.5698699319
 C        -8.0969218847        2.7279887525        0.1835073984
 C        -8.6519128407        2.8438862061       -1.3429862125
 O        -8.6868275330        3.9640119312       -1.8851532374
 C        -8.9329198118        1.5991035792       -2.0874788281
 C        -9.2558080770        1.9562568239       -3.5679228593
 C        -8.0210918051        2.6972807364       -4.0733875059
 O        -6.8338751051        2.6231057510       -3.7863912107
 C        -8.2390803438        3.8777566555       -5.2770970528
 C        -7.8212779996        5.1267447791       -4.4185327517
 O        -8.7195561177        5.7990182147       -3.8755602853
 C        -6.3215935173        5.4492232658       -4.3329784951
 C        -5.9017378887        6.3740076291       -3.1890543162
 C        -6.6218929161        7.7592901408       -3.3400430466
 O        -7.6333658338        8.0582765179       -2.7375130175
 C        -6.1417804992        8.6267312938       -4.4326251975
 C        -7.2508987387        8.3815078469       -5.6491450653
 O        -7.0881518729        7.4643640831       -6.3922310620
 C        -8.4934566261        9.3024812515       -5.8175657150
 C        -6.3209410007       10.0961897523       -3.9474694793
 C        -4.7607159075        8.3932130766       -4.9285085908
 C        -7.3563566856        3.5162789472       -6.4363399821
 C        -9.6923257214        4.0419435479       -5.7229790584
 C        -6.6144274291        2.5874247649        0.0968637607
 C        -8.6454061978        1.4921788949        0.8794602765
 C       -13.1890299641        6.7098247829        0.3216637643
 C       -12.3579465852        8.2017257320        2.1700444270
 C       -14.4590117295        2.2037893017        6.2820936287
 C       -11.9997800644        2.6711469700        6.9576460977
 C       -11.3374727071       -2.4334309571        1.1903725172
 C       -10.7778177413       -3.5712552440        3.2618920278
 H        -6.9121310217       -2.3479492832        2.4738452703
 H        -7.6765165255       -4.0062339221        2.5637174169
 H        -7.9858525028       -2.8542772502        3.8678074937
 H       -10.3598923775       -1.6579410397        5.1598467728
 H       -12.0860231312       -1.6332334768        4.6328489521
 H       -10.8195902771        0.8813455485        4.2736252572
 H       -10.7004202453        0.5002230802        5.9889186358
 H       -14.3020627751        4.3753972782        4.5214314617
 H       -14.7468933328        2.8647893683        3.6815321676
 H       -14.5465975097        4.7084073874        2.0803195263
 H       -13.0529268113        3.7560126155        1.8842475753
 H       -10.2262882740        5.9841435099        3.0353734396
 H        -8.9051443548        6.2163990146        1.7401845923
 H       -10.5683605497        3.7736536910        1.4071888298
 H        -9.2527185888        3.8289304517        2.7144773647
 H        -9.7393150414        0.9989679221       -1.7082541991
 H        -8.1006137543        0.8793023576       -2.1214129284
 H       -10.1300152952        2.5652903660       -3.5518114012
 H        -9.4807934997        1.1329098776       -4.1549070942
 H        -6.0373945871        5.9727024298       -5.2816968514
 H        -5.6805847208        4.6084768028       -4.2433706697
 H        -4.8250323846        6.4887859098       -3.3824633496
 H        -6.0499255803        5.8729614016       -2.2767636426
 H        -9.0824019489        8.8540589141       -6.5699699355
 H        -8.1379802669       10.2846297528       -6.3376150830
 H        -9.0810071618        9.4896778962       -4.8949506779
 H        -7.2555318096       10.2944207665       -3.4400378377
 H        -6.3274477786       10.7739629354       -4.8350473329
 H        -5.4252782542       10.4573489899       -3.3799567894
 H        -4.5189320112        7.3805502744       -5.1734847277
 H        -4.1398394173        8.7168207895       -4.0697133788
 H        -4.4359827902        8.9210453269       -5.8351528060
 H        -7.2117929889        4.3152250302       -7.1015762330
 H        -7.7999289622        2.7157248099       -6.9347699292
 H        -6.3591217976        3.2881194938       -6.0272386635
 H        -9.7093685766        4.5098659885       -6.7645402625
 H       -10.3467782496        4.5700744287       -5.0321113970
 H       -10.0337484110        3.0136213959       -6.0011855475
 H        -6.1819523009        2.6367179239        1.1227306992
 H        -6.0090920609        3.3956357233       -0.4457937764
 H        -6.3271202769        1.5983074523       -0.3253373282
 H        -7.8418690441        1.1533053347        1.5489977007
 H        -8.8742004316        0.6815829899        0.2289955143
 H        -9.5612709307        1.6152691328        1.4172574836
 H       -14.1982392118        7.0402492638        0.5347885992
 H       -13.4708368914        5.8084072402       -0.2935620978
 H       -12.7396210771        7.4352991321       -0.3863780866
 H       -11.9077920320        8.1558688647        3.1656616712
 H       -13.4271133476        8.6039184875        2.3354189902
 H       -11.8325593149        8.8807634651        1.5321893023
 H       -14.3784759441        1.4623488415        7.1372945687
 H       -15.0704674928        1.6720472266        5.5037470020
 H       -14.7551181621        3.2240307083        6.4107630114
 H       -12.0308699921        1.8652978838        7.7241669954
 H       -12.3488632875        3.5862332241        7.4532567976
 H       -11.0548044689        2.8364573421        6.5818891753
 H       -11.2826994856       -1.5615694797        0.5481913570
 H       -12.3947075179       -2.5346396836        1.4468446212
 H       -10.9877662008       -3.1999603961        0.4905992766
 H       -11.8467598700       -3.5375388686        3.3319530372
 H       -10.4733210473       -3.6407682682        4.3069007271
 H       -10.5405146654       -4.5564517514        2.7695319119
 Na       -8.9196872920        6.3439023184       -1.5206046081
