117

 C        -7.7949282047       -2.8623580721        2.5750052146
 C        -8.9603440424       -2.3793732362        1.7640089320
 O        -8.7136237409       -2.0284692282        0.6302042845
 C       -10.3843770323       -2.3137165746        2.4255545288
 C       -10.5405238823       -0.9654854248        3.2102000820
 O       -10.2557641610        0.0095977055        2.6077367639
 C       -11.1540874387       -1.0412974878        4.6700231450
 C       -11.3178116847        0.2385099505        5.5054495484
 C       -12.7435111587        0.8837794180        5.3950072428
 O       -13.5800280548        0.2300055784        4.7668694275
 C       -13.1044086494        2.3130561972        5.8983477770
 C       -12.7853605775        3.1315275206        4.6013480619
 O       -11.6213473277        3.1692283026        4.2268686962
 C       -13.9293685226        3.7706413585        3.8221153987
 C       -13.5439990186        4.5551815151        2.5494367648
 C       -12.7983007838        5.8498553917        2.7634055406
 O       -12.5096434010        6.3306175316        3.8453313867
 C       -12.3571933672        6.7259226376        1.5113633713
 C       -10.8877970864        6.3547210108        1.0118280497
 O       -10.5007712366        6.5853495977       -0.1447239105
 C        -9.9369752565        5.7155449179        2.0482583029
 C        -9.5988658481        4.2544998564        1.6456688086
 C        -8.4128215051        4.1160289390        0.7137314933
 O        -7.7285644409        5.0549707062        0.3290955862
 C        -7.9956271429        2.6663627206        0.2466018435
 C        -8.4945919972        2.7339003210       -1.3277140244
 O        -8.6959453334        3.8168093312       -1.8163629839
 C        -8.9857045939        1.5153522978       -2.1042048544
 C        -9.2230663064        1.8220796510       -3.6299886930
 C        -8.0345680479        2.7009514647       -4.2352631521
 O        -6.9245320449        2.4382701485       -3.8194384638
 C        -8.2839218607        3.8475359137       -5.3464721062
 C        -7.8634275369        5.0571919578       -4.5348798467
 O        -8.7058500335        5.7618843757       -4.0130615409
 C        -6.4236270765        5.3058651511       -4.3295658370
 C        -6.2080764745        6.2910359083       -3.0681654933
 C        -6.8093356932        7.6743412316       -3.3572594686
 O        -7.7229600231        8.0458776471       -2.6171217465
 C        -6.2789903039        8.7030452911       -4.4191918660
 C        -7.0950350570        8.4360510467       -5.7493419567
 O        -6.8598537182        7.4484490424       -6.4196474691
 C        -8.2402465181        9.3925356131       -5.9949034956
 C        -6.2724373179       10.1415753090       -3.9883031873
 C        -4.8254975893        8.3279867002       -4.7957885817
 C        -7.3373692320        3.6386792925       -6.5545108544
 C        -9.7821064768        3.9880005257       -5.8226823298
 C        -6.4440270428        2.3578812050        0.2170800877
 C        -8.7929916321        1.5975212936        0.9778039545
 C       -13.4792066556        6.6878920656        0.3883741845
 C       -12.0796857797        8.1282729475        2.0489049415
 C       -14.5988664214        2.3177891198        6.4482776855
 C       -12.1598986913        2.6386384898        7.0787229029
 C       -11.4328048083       -2.2615502911        1.3240701200
 C       -10.5321109320       -3.6412348875        3.3054112432
 H        -6.9009042222       -2.4798769328        2.1282768161
 H        -7.7710335335       -3.9558711598        2.6615757248
 H        -7.8742698175       -2.4629754534        3.5556792645
 H       -10.3326079457       -1.6937166980        5.1706512256
 H       -12.1110167146       -1.5581283127        4.5862346935
 H       -10.5324852202        1.0494831068        5.2526276692
 H       -11.1188522235       -0.0132540620        6.5399128106
 H       -14.5632283512        4.3677117987        4.4773804004
 H       -14.5630396343        2.9997406459        3.5470032068
 H       -14.5030518553        4.8066354336        2.0859531403
 H       -12.9558776208        3.9245976343        1.8132892329
 H       -10.5849647855        5.7485527843        2.8955538762
 H        -8.9825023354        6.2929066224        2.1581246621
 H       -10.3999330600        3.8420575159        1.0067012983
 H        -9.4764900142        3.7127596877        2.5627055517
 H        -9.8925796165        1.0590122921       -1.6732779613
 H        -8.2821477841        0.7008268873       -2.1803876179
 H       -10.2590149989        2.2474549320       -3.6649965065
 H        -9.3457345979        0.8567918870       -4.2518168813
 H        -6.0472631955        5.7218778451       -5.2310453737
 H        -5.8136484854        4.4340562776       -4.0486935899
 H        -5.1394311127        6.3748215000       -2.9170671405
 H        -6.6417488002        5.7660251883       -2.1980579840
 H        -9.1665633472        8.8569012652       -6.3153989961
 H        -8.0629737784       10.0999662517       -6.7370391544
 H        -8.5000172620        9.7826875581       -5.0414378241
 H        -7.2319863632       10.4796934381       -3.6084649440
 H        -5.9216049064       10.8177014600       -4.7274080288
 H        -5.5777756450       10.2026512064       -3.1932950248
 H        -4.7881351124        7.3564163071       -5.3588496701
 H        -4.1168261292        8.3690927182       -3.9630792562
 H        -4.4523272562        9.0375350355       -5.5388534269
 H        -7.1835251869        4.5650119196       -7.1816670596
 H        -7.8186491471        2.8166679198       -7.1485844811
 H        -6.3280439813        3.3648180248       -6.2464086825
 H        -9.9212690355        4.7897709279       -6.5199530440
 H       -10.4762098401        4.0687978935       -4.9459558994
 H       -10.0142401405        3.0886258509       -6.3981712852
 H        -6.0109129127        2.1161843313        1.1810092236
 H        -5.8315971133        3.1317339148       -0.1513854387
 H        -6.3067201734        1.5179789051       -0.4687388089
 H        -8.6447265938        1.7381973232        2.0432052290
 H        -8.4413663688        0.5843179051        0.7164054462
 H        -9.8667638688        1.5714194699        0.7179923794
 H       -14.4661507961        7.1009002549        0.5507444216
 H       -13.8027989684        5.6931701184        0.2587686415
 H       -13.1618290199        7.0386747157       -0.5689299045
 H       -11.3569505394        8.1449187272        2.8535763272
 H       -12.9455698834        8.5634307508        2.3702156673
 H       -11.7877309914        8.7709167388        1.1691501096
 H       -14.5405249706        1.9113118029        7.4088604676
 H       -15.1285249281        1.6955338453        5.7786087023
 H       -14.9534805035        3.3578615031        6.4256293276
 H       -12.2574655018        1.8627291481        7.8334028583
 H       -12.4895715295        3.5454546608        7.6216867370
 H       -11.0916390674        2.7540290676        6.6730704019
 H       -11.9421341458       -1.2886974892        1.2635367912
 H       -12.2066243470       -3.0115350305        1.4745015734
 H       -11.0217664894       -2.3338451004        0.3184838476
 H       -11.3126226269       -3.6007418707        4.0626263228
 H        -9.6585651417       -3.8994885854        3.8631632370
 H       -10.7652207671       -4.4364990848        2.6749083580
 Na       -8.5988606591        6.0748807839       -1.4990841841
