117

 C        -7.7479840176       -2.6420919359        2.4278162268
 C        -9.0006900643       -2.2879547987        1.7242939457
 O        -8.8773557245       -1.9888756710        0.5317452048
 C       -10.3919391193       -2.3130924524        2.5202167927
 C       -10.5231271526       -0.9623462989        3.4130475757
 O       -10.1279971378        0.1491114895        3.0488165450
 C       -11.1539859497       -1.1580286686        4.8324386854
 C       -11.3749768721        0.2364642572        5.4749547285
 C       -12.8227840424        0.7510662463        5.4275033944
 O       -13.7163630520        0.1347866029        4.9741995670
 C       -13.0705288008        2.3063907235        5.8588923164
 C       -12.7475635363        3.2317027440        4.6166329898
 O       -11.6282496277        3.4378794067        4.1891528773
 C       -13.9331134656        3.9824177641        3.9891518718
 C       -13.4182160666        4.5819795858        2.6617571080
 C       -12.7774457533        5.9808037930        2.8019364570
 O       -12.8362646200        6.5267850908        3.8783432635
 C       -12.3031755140        6.7868091033        1.5290353537
 C       -10.9015472413        6.2330557271        0.9046934086
 O       -10.6959420122        6.3947906466       -0.2774726199
 C        -9.7968192589        5.6491588855        1.9858775372
 C        -9.4823615438        4.2055180239        1.7035186904
 C        -8.3352119846        4.0512513803        0.7296570630
 O        -7.5831491656        4.9686414760        0.4712323725
 C        -8.1053500529        2.6275485495        0.0859700663
 C        -8.5690404551        2.6950103693       -1.4288327316
 O        -8.7091503336        3.7282999020       -2.0838384301
 C        -8.7205383216        1.3850697378       -2.1819466411
 C        -9.2236899472        1.7423070630       -3.6562162867
 C        -8.0496469494        2.4892676218       -4.3187772658
 O        -6.9013708729        2.1627928522       -4.0607297382
 C        -8.3685333905        3.7601990518       -5.2844992035
 C        -7.9905685650        5.0085565206       -4.4817280437
 O        -8.8834476373        5.7012742177       -4.0226761901
 C        -6.5456552831        5.2760757874       -4.1693208456
 C        -6.1391800454        6.3153495839       -3.1222229782
 C        -6.7437513976        7.6691009925       -3.2561759194
 O        -7.6333939404        8.0009541658       -2.5252069393
 C        -6.2291684333        8.7032836769       -4.3756269211
 C        -7.0042828190        8.4714066002       -5.7848910308
 O        -6.7500283752        7.4828566609       -6.4672076474
 C        -8.1589998768        9.3716961403       -6.1676637937
 C        -6.3528437451       10.1063981803       -3.8060308317
 C        -4.7438856476        8.3486173301       -4.6852092976
 C        -7.3753000344        3.5366635106       -6.5160173417
 C        -9.8589965935        3.7102309287       -5.8188283112
 C        -6.5983716011        2.4649288492        0.0648125863
 C        -8.8023941909        1.4265694459        0.8596740552
 C       -13.2618845758        6.7393492559        0.3820832955
 C       -12.0816180720        8.3376025818        1.7979815796
 C       -14.5470223454        2.4155603181        6.3213347544
 C       -12.1653294684        2.7421715949        7.0097102619
 C       -11.5456103549       -2.2728017889        1.4620469793
 C       -10.5163357841       -3.5884508944        3.3105099050
 H        -6.9595128321       -2.4001222705        1.7295285853
 H        -7.7185826030       -3.7398715055        2.5628493118
 H        -7.5977422618       -2.1642214631        3.4084459735
 H       -10.4244660452       -1.6969285787        5.3615345530
 H       -12.1317021623       -1.7263657708        4.7272256901
 H       -10.7923139780        0.9785486124        5.0156515026
 H       -10.9510861976        0.2711237773        6.5255695567
 H       -14.3157817365        4.7535267335        4.6811673623
 H       -14.8616146483        3.3288699081        3.7949934755
 H       -14.2827512150        4.5605084067        1.9512489576
 H       -12.6543024307        3.9164522631        2.2445932809
 H       -10.1833238181        5.7691514455        3.0482667779
 H        -8.9250464415        6.2396252276        1.8463487839
 H       -10.3578602001        3.5766628041        1.4771815629
 H        -9.0207235117        3.9566716211        2.6947431699
 H        -9.3983638556        0.6889719584       -1.6624140107
 H        -7.8161683257        0.8124199146       -2.4747118379
 H       -10.1565447676        2.2807280429       -3.5723721742
 H        -9.4666139024        0.9416604697       -4.2957182599
 H        -6.1885798656        5.8124197958       -5.1220397113
 H        -5.8909605241        4.4173980753       -3.9715828954
 H        -5.0195281911        6.3232960248       -3.1015462963
 H        -6.4825144968        5.9290422514       -2.1489687860
 H        -8.8952096461        8.8664321445       -6.7699079756
 H        -7.7410482614       10.1618968895       -6.8332902562
 H        -8.7675822403        9.7301351977       -5.3193069954
 H        -7.3746931475       10.2089401437       -3.4469881140
 H        -6.1528319846       10.8350931367       -4.6109386421
 H        -5.7248458267       10.3560172576       -2.9258301169
 H        -4.6341961243        7.4799497797       -5.2740361937
 H        -4.1607546562        8.2806812904       -3.7881855981
 H        -4.2919800314        9.1958425003       -5.2053442457
 H        -7.2714191426        4.3979582959       -7.1499984872
 H        -7.6609190603        2.6560748019       -7.0908865394
 H        -6.3571890171        3.4016623359       -6.1033688650
 H       -10.0358407148        4.5365277585       -6.4753585318
 H       -10.4343058323        3.8136257375       -4.9503077351
 H       -10.1381316639        2.7983316829       -6.2884873537
 H        -6.2281053270        2.4591260694        1.0712213522
 H        -6.0602233812        3.2952789635       -0.4000649239
 H        -6.2348725421        1.5976899341       -0.4260781756
 H        -8.7604930021        1.5298300962        1.9601114564
 H        -8.3106609765        0.4957659898        0.5240503454
 H        -9.8209329138        1.2931190950        0.5210067655
 H       -14.3170538024        6.7270039946        0.5611656463
 H       -13.2449677944        5.8815363382       -0.3002872130
 H       -13.1194332344        7.6365484911       -0.2038621760
 H       -11.0874138070        8.3788012241        2.2442169582
 H       -12.8472586974        8.9238639592        2.4275803518
 H       -12.0679999411        8.8676353968        0.9045809604
 H       -14.6740276359        1.7017559011        7.1652950924
 H       -15.1379654786        2.2650672413        5.4173634658
 H       -14.6287461321        3.3790074427        6.8117798198
 H       -12.2914156876        2.1659687233        7.9184949422
 H       -12.4240511177        3.7313130832        7.2859744020
 H       -11.1845343007        2.6783471080        6.6469214160
 H       -12.3384614003       -1.5600626940        1.6358848873
 H       -11.9542524211       -3.2671348507        1.2773963513
 H       -11.1282026957       -1.9644715198        0.5108820744
 H       -11.5562751799       -3.8731716630        3.5070007535
 H       -10.0008435712       -3.5115353153        4.2808929369
 H       -10.0375781405       -4.4202063916        2.7231727787
 Na       -8.5956026521        6.2578486068       -1.4929461015
