117

 C        -7.8187185781       -2.3818340645        2.4344955042
 C        -9.1665317040       -2.1044005523        1.7378022379
 O        -9.1850712565       -1.7904598544        0.5849598323
 C       -10.4025456126       -2.2888338817        2.6279689864
 C       -10.4423458910       -1.0284936783        3.5544210936
 O        -9.8927592595       -0.0051044291        3.1822349354
 C       -11.2868851202       -1.0840241306        4.8575707072
 C       -11.4329569664        0.2715316626        5.4652336766
 C       -12.8242625918        0.8758748806        5.3966844561
 O       -13.7614627239        0.0972135834        5.1470240559
 C       -13.0700098018        2.3443251023        5.7953937330
 C       -12.6588517872        3.3057751239        4.6030262768
 O       -11.4581410084        3.3021470205        4.3615911425
 C       -13.7761364159        4.1490225239        3.8715759399
 C       -13.3990613966        4.8010606819        2.5413396142
 C       -12.8752185245        6.1984919709        2.6855025900
 O       -12.9334054728        6.8142253135        3.7075583821
 C       -12.2983037867        6.8784988541        1.4649917796
 C       -10.8887834716        6.1883347336        0.9550151983
 O       -10.6789767729        6.0329168203       -0.2388657347
 C        -9.8144788764        5.7970858048        1.9618075554
 C        -9.4818705417        4.2054535108        1.7568051464
 C        -8.3803289885        4.0362236358        0.6740000651
 O        -7.6949156085        5.0115767555        0.3433739752
 C        -8.0495101658        2.6118395778        0.0847812239
 C        -8.5612483331        2.7318276170       -1.4859068819
 O        -8.6984920395        3.8112026725       -2.0337884593
 C        -8.7178353446        1.4550110608       -2.2011928048
 C        -9.0641418825        1.5370928919       -3.7113455276
 C        -7.9872177555        2.3009095532       -4.4598331286
 O        -6.8266166450        1.9951239614       -4.3752433272
 C        -8.4216324798        3.6495127637       -5.2943572585
 C        -8.0616019998        4.8005131974       -4.3870048838
 O        -8.8889970789        5.5433393695       -3.8671333529
 C        -6.6129354137        5.2295536849       -4.3566909184
 C        -6.2219808965        6.2373529250       -3.2037472821
 C        -6.6981843720        7.6589327308       -3.2823853265
 O        -7.6192438191        7.9807467883       -2.4916467460
 C        -6.1277167941        8.6560969276       -4.2888490637
 C        -6.9455171817        8.3478708756       -5.6252810269
 O        -6.6157701061        7.4707133291       -6.3585532408
 C        -7.9638288724        9.3670060258       -6.0781806942
 C        -6.5145340970       10.0512626327       -3.8214875810
 C        -4.6182497138        8.5741755155       -4.6319946828
 C        -7.5053239221        3.5759154747       -6.5307160221
 C        -9.8887299477        3.6850729074       -5.7559671494
 C        -6.5362728879        2.3792766740       -0.0966424111
 C        -8.7420795421        1.3638900447        0.7627192607
 C       -13.2961880531        6.6880887741        0.2846567059
 C       -11.9453457697        8.3028403008        1.9177014725
 C       -14.5832092178        2.4459335240        6.2427924385
 C       -12.0466828184        2.7206774220        6.9311300496
 C       -11.5836584681       -2.0973946728        1.6724153865
 C       -10.4285904465       -3.6479154259        3.4205226139
 H        -6.9935306150       -2.0980181113        1.7218684324
 H        -7.6876954435       -3.4362570452        2.6713239296
 H        -7.8026108559       -1.8122192902        3.3746569286
 H       -10.7899918820       -1.7911171080        5.5891473903
 H       -12.1760384208       -1.5093310934        4.5609949075
 H       -10.6689104109        0.9912126544        5.0381794163
 H       -11.0798512876        0.2986880452        6.4547755042
 H       -14.1639490240        4.9200429648        4.5679639727
 H       -14.6002253929        3.5011126746        3.7292623773
 H       -14.2822464925        4.8597508680        1.9319126735
 H       -12.7678447543        4.1418733424        1.9543133402
 H       -10.1663292649        5.9901852650        2.9503482767
 H        -8.9556857130        6.5588415968        1.7654569181
 H       -10.4052789393        3.7559823307        1.4370192968
 H        -9.1704738065        3.8039597443        2.7119476660
 H        -9.5222595086        0.8724165987       -1.7918214002
 H        -7.8182354926        0.8830543437       -2.1685294141
 H       -10.0511577157        1.9829992240       -3.7230324102
 H        -9.3150100255        0.5427905682       -4.1434968882
 H        -6.2054793729        5.7101402611       -5.1913389815
 H        -6.0705446829        4.3045042913       -4.1774792209
 H        -5.1512209638        6.2971380764       -3.2282995108
 H        -6.4953050253        5.8808026825       -2.2258678923
 H        -8.3791389182        8.9869988132       -7.0064939934
 H        -7.5466269968       10.3640159541       -6.2600220617
 H        -8.8432389728        9.3777892900       -5.4552911499
 H        -7.5811803254       10.1390179847       -3.5280552898
 H        -6.2460613261       10.7684795698       -4.6021714742
 H        -6.0030892461       10.3051978512       -2.8893179580
 H        -4.3597911121        7.5163435491       -4.8731799773
 H        -3.9611752460        8.9080822118       -3.8082903308
 H        -4.4211834570        9.2654162645       -5.4427897975
 H        -7.5461548688        4.4936506948       -7.1095428555
 H        -7.6950025856        2.7492471793       -7.1820986191
 H        -6.4796130138        3.4255082109       -6.2194817054
 H        -9.9862464056        4.3211023734       -6.6754034876
 H       -10.5054672823        4.1119284415       -4.9226326182
 H       -10.2535744922        2.6324316565       -5.8983584787
 H        -5.7884802903        2.4713875908        0.7289658146
 H        -6.1745805733        3.0815409140       -0.8729223643
 H        -6.3298172298        1.3860935382       -0.6059310018
 H        -8.2121948677        1.1494208882        1.6763135025
 H        -8.6768248877        0.5164084600        0.1221979325
 H        -9.7952675590        1.5620940920        0.9987305182
 H       -14.3683406397        6.9567748631        0.3915536020
 H       -13.3798973818        5.6510618836       -0.0376726065
 H       -13.0337375551        7.2776969299       -0.6126285020
 H       -11.3261460412        8.3352514212        2.8057518873
 H       -12.8460127682        8.8240872827        2.0473900375
 H       -11.4944166381        8.9253606013        1.0767378880
 H       -14.6405783112        1.9800920396        7.2087176115
 H       -15.1331494691        1.9751165110        5.4310028494
 H       -14.8145178828        3.4686682120        6.5173626647
 H       -12.2017564100        2.0159305340        7.7444456371
 H       -12.3200108126        3.7366361440        7.2842464814
 H       -10.9965247823        2.6470020134        6.6287740632
 H       -12.5160398887       -2.3608839006        2.1875664515
 H       -11.4191888222       -2.6918345381        0.7749778449
 H       -11.7312001040       -1.0769109590        1.2866099398
 H       -11.4531927466       -3.8486260535        3.7615430459
 H        -9.7663551399       -3.5696967444        4.2982081001
 H       -10.1066188476       -4.4879024690        2.8240006405
 Na       -8.8359809991        6.1220551643       -1.4794863810
