117

 C        -8.0109173086       -2.1218063514        1.8101520683
 C        -9.4745150479       -1.5904519338        1.7328883951
 O        -9.9674848096       -1.1443107720        0.7096892078
 C       -10.4821670032       -1.9643329693        2.8749775049
 C       -10.3407235245       -0.9305504991        4.0430995333
 O        -9.3042246021       -0.2500036404        4.0978753212
 C       -11.4522934689       -0.8194557839        5.0802115783
 C       -11.5143197417        0.5522193117        5.7798577731
 C       -12.8601525559        1.2504502109        5.5313431223
 O       -13.8116627188        0.6834603942        5.0829542879
 C       -12.9235685229        2.7883024694        5.8903456251
 C       -12.5948101114        3.5819081161        4.4596381619
 O       -11.4907409313        3.5329866984        3.9933550887
 C       -13.7644408544        4.1330187864        3.6180979480
 C       -13.3781686855        4.9240947549        2.3816752611
 C       -12.9121001450        6.4018262012        2.5696966447
 O       -13.1496566678        7.0003144087        3.6192017772
 C       -12.1102382832        6.9959845723        1.3092133711
 C       -10.9593036210        6.1059094379        0.8627036473
 O       -10.9174403793        5.7806552026       -0.3000561692
 C        -9.8676668529        5.6220263901        1.8705075604
 C        -9.4024220759        4.1969261864        1.3802768169
 C        -8.1868955391        4.0614685494        0.4612082782
 O        -7.5719652656        4.9790879029       -0.0438428845
 C        -7.9142901823        2.5963199124       -0.0671500978
 C        -8.5766309550        2.3363053521       -1.4060698546
 O        -9.1851258593        3.2226858764       -1.9813699213
 C        -8.4334950585        0.9575444500       -2.2163935690
 C        -8.7062412252        1.2509391997       -3.7763279500
 C        -7.8327830792        2.2749636274       -4.5475976826
 O        -6.6269799984        2.1468874469       -4.4811581345
 C        -8.5400706103        3.3582035923       -5.5300784243
 C        -8.1745516556        4.7140722653       -4.8454234915
 O        -9.0520810288        5.3059769119       -4.2436775779
 C        -6.7066383892        5.0830812930       -4.7799757452
 C        -6.3184462705        5.7553794110       -3.4337346720
 C        -6.8873515757        7.2074437664       -3.1525709132
 O        -7.7946415167        7.4992853010       -2.3356574159
 C        -6.2086682219        8.4300750704       -3.8435401196
 C        -6.6262140671        8.3596009035       -5.3976907625
 O        -5.9362488599        7.6765885781       -6.1405718003
 C        -7.8782720172        9.0525915662       -5.8908523128
 C        -6.7600164410        9.7106018722       -3.1972122397
 C        -4.6580527641        8.3929617826       -3.8678870664
 C        -8.0207265431        3.3448061722       -6.9849192358
 C       -10.0777421399        3.1589268277       -5.5801680767
 C        -6.3772476052        2.3359221337       -0.1671070819
 C        -8.3714770213        1.5397032310        0.9961033148
 C       -12.9646500985        7.2049177484        0.0707003279
 C       -11.4564929052        8.3610588146        1.8572589692
 C       -14.3967170640        3.1477703876        6.2885274087
 C       -11.8770893385        3.1860529921        6.9690631506
 C       -11.9351809939       -2.0934860219        2.2360614880
 C       -10.0170171754       -3.2827784811        3.5324265603
 H        -7.3252267014       -1.7470758513        1.0388332352
 H        -8.1016456256       -3.1618677726        1.8241584736
 H        -7.6193506326       -1.8180119448        2.7999383351
 H       -11.4150211235       -1.6137146100        5.8469756501
 H       -12.3306666645       -0.9894143718        4.5896318877
 H       -10.7127659009        1.2700304949        5.4366626858
 H       -11.3938246773        0.5282084868        6.8076520378
 H       -14.4466681304        4.8247074268        4.2289683856
 H       -14.3245770888        3.2517655605        3.2423026169
 H       -14.2265658907        4.8927174296        1.6805961771
 H       -12.6274956213        4.3278606076        1.8457187765
 H       -10.1145724975        5.5748120370        2.8850715710
 H        -9.0710144631        6.4335520976        1.9729349279
 H       -10.2177125708        3.6599267567        0.9224692623
 H        -9.2409870510        3.6312281403        2.3370978797
 H        -9.2708148167        0.3878391410       -1.8469163442
 H        -7.4519457649        0.4759867724       -2.0605174322
 H        -9.7621129510        1.3932660195       -3.7886226119
 H        -8.4341266544        0.3679461920       -4.2931905458
 H        -6.4011158000        5.8107074324       -5.5860990374
 H        -6.0354436246        4.1867700237       -4.9627761918
 H        -5.1850846391        5.7932787318       -3.3586764159
 H        -6.6195566281        5.1585381251       -2.5360813047
 H        -8.2639366577        8.4273043659       -6.6366594097
 H        -7.7782804166       10.1336800323       -6.2342136967
 H        -8.5260245418        9.1541068564       -5.0252415619
 H        -7.8161442141        9.7457894434       -3.2500791202
 H        -6.3073108789       10.5526617026       -3.6857141233
 H        -6.4185632860        9.7193089795       -2.1698193706
 H        -4.2772979280        7.4805059588       -4.2668297328
 H        -4.4079820198        8.4734154275       -2.8097735710
 H        -4.2497731290        9.2003004987       -4.4500693484
 H        -8.3819379081        4.1853829717       -7.5972183277
 H        -8.2999489832        2.4926854134       -7.5782894214
 H        -6.8793592291        3.4524682262       -7.0520890334
 H       -10.5143639906        3.7413870503       -6.3875905708
 H       -10.5549356696        3.4112986036       -4.6854686737
 H       -10.3296988430        2.1410699688       -5.8267123744
 H        -5.8189498207        2.3951152312        0.7033845951
 H        -5.8412443897        2.9414253068       -0.8695755390
 H        -6.2078768442        1.3428197260       -0.5118411208
 H        -7.9280059197        2.0384560283        1.9012777328
 H        -7.8358460968        0.6223321744        0.8293400330
 H        -9.4663773406        1.3866522673        1.0861297294
 H       -13.6852941372        7.9465991747        0.3320668405
 H       -13.5801208559        6.3748092821       -0.2431606311
 H       -12.5349358073        7.5409973396       -0.8613956600
 H       -10.6743369099        8.2379246079        2.5667951527
 H       -12.3030059895        8.7344754334        2.4995333686
 H       -11.1739210868        9.1107661247        1.1706709372
 H       -14.4321441364        2.8813723915        7.3642808720
 H       -15.1167483346        2.4427335115        5.8595863736
 H       -14.6973914308        4.1282985221        6.0211176746
 H       -11.9220352000        2.4481159909        7.8076270921
 H       -12.1222960634        4.1708816260        7.4448673955
 H       -10.8901770763        3.2293814613        6.6090484807
 H       -11.8585267375       -2.8636935592        1.4961642270
 H       -12.1693135783       -1.2154047355        1.6400842610
 H       -12.7223687299       -2.2785767179        2.9774968159
 H       -10.5849857977       -3.4565543549        4.4083661530
 H        -8.9878199380       -3.1513953112        3.8190392907
 H       -10.1087448381       -4.1254502464        2.8426231940
 Na       -9.1882281691        5.6002994827       -1.8327704324
