117

 C        -8.1654991217       -1.9946371847        1.8752087605
 C        -9.6122510339       -1.6292136554        1.8404827583
 O       -10.0795901515       -0.9300411922        0.9749450462
 C       -10.5847200046       -2.0430225877        2.9919449232
 C       -10.4046871560       -0.9175894596        4.0138018702
 O        -9.3667072829       -0.2227817491        3.8107791444
 C       -11.4394687348       -0.7209391806        5.1076704151
 C       -11.4132038722        0.7366116633        5.6926217257
 C       -12.7481602853        1.4840408370        5.4615898489
 O       -13.6605705172        0.9217158922        4.9802906593
 C       -12.8434542712        3.0687330203        5.7481578453
 C       -12.6664235937        3.8214011709        4.3527345648
 O       -11.5272076929        3.9329735744        3.9418681300
 C       -13.8708939221        4.2208820157        3.5218682299
 C       -13.3771331874        4.8858324364        2.1995047230
 C       -12.8673193163        6.2599580256        2.5762862868
 O       -13.0372536502        6.7747113247        3.6728498076
 C       -12.0772086777        7.0453909179        1.3659825880
 C       -10.9704038378        6.2066096246        0.7406944346
 O       -10.9215067096        6.0499517405       -0.4610029148
 C        -9.7865438556        5.6721583977        1.6549460368
 C        -9.3816880453        4.1591998551        1.3878371556
 C        -8.2459362906        3.9425230103        0.3482101628
 O        -7.6711639334        4.9242410978       -0.1177995148
 C        -7.8261971671        2.5571480664       -0.1464818410
 C        -8.4303637660        2.3128103276       -1.5898909015
 O        -9.1360001503        3.1267666247       -2.1218806388
 C        -8.2007437756        0.9224261578       -2.2496202004
 C        -8.6888763205        0.9882300806       -3.7482043558
 C        -7.8701882917        2.1044400443       -4.4582538319
 O        -6.6723642136        2.1176198946       -4.3538598348
 C        -8.6149364035        3.1107947723       -5.4411698928
 C        -8.4328460385        4.4640205829       -4.7213953275
 O        -9.3276226721        4.9873627003       -4.0636281505
 C        -7.0127978681        5.0594468674       -4.7409399203
 C        -6.3923644062        5.8201544260       -3.5644651347
 C        -6.9010414434        7.1892513847       -3.1787622042
 O        -7.8660260836        7.3092712779       -2.4227906323
 C        -6.1505906908        8.4391889233       -3.7609312213
 C        -6.5562095375        8.4226886798       -5.2802350919
 O        -5.8074176639        7.8908000655       -6.0813734466
 C        -7.8610193600        8.9510729572       -5.6937429790
 C        -6.7001079280        9.6747242723       -3.0898638182
 C        -4.6586576437        8.2281380068       -3.4973329492
 C        -7.8259890551        2.9737806302       -6.7236073495
 C       -10.1295104368        2.7858072982       -5.5833241483
 C        -6.2561232852        2.6166422963       -0.4252065972
 C        -8.2180000503        1.3342466463        0.7077893922
 C       -13.2351318611        7.4264181279        0.3716181846
 C       -11.3225508478        8.2359315306        1.9806947378
 C       -14.2836443955        3.2826035416        6.3312195261
 C       -11.6722838913        3.5250917607        6.6597734977
 C       -12.0086240364       -2.1556337901        2.4679340346
 C       -10.1456967251       -3.3687279442        3.5938521812
 H        -7.6897297166       -1.6216747503        0.9369765382
 H        -8.0308462681       -3.0067803391        2.1106805185
 H        -7.7326531909       -1.3624586008        2.6655339922
 H       -11.2310364387       -1.4904496890        5.9841157304
 H       -12.4169279246       -1.0123244130        4.7188038161
 H       -10.6467632839        1.2418954052        5.0452551683
 H       -11.1459251629        0.7952736402        6.7863142717
 H       -14.4756991988        4.9910680813        3.9900971715
 H       -14.4102267951        3.3649475001        3.3256640901
 H       -14.2430224163        5.0453916077        1.5815600980
 H       -12.6155847764        4.2581815744        1.6004523875
 H        -9.9598805215        5.7842776312        2.6955619047
 H        -8.8892251566        6.3210018388        1.5777098698
 H       -10.2200373660        3.4170381708        1.2156165371
 H        -9.0328138038        3.8110318997        2.3513428065
 H        -8.7262140166        0.1142179905       -1.6124320442
 H        -7.0648449283        0.7730254228       -2.2372366668
 H        -9.7705884937        1.2604240461       -3.7432797333
 H        -8.5170978400       -0.0715890297       -4.1402401816
 H        -6.9881860626        5.6598587742       -5.6155427445
 H        -6.2752016537        4.2839865413       -4.9788472922
 H        -5.3459882709        5.8701632123       -3.6718924199
 H        -6.6339656997        5.2412208467       -2.6550511001
 H        -7.9597405527        8.7530431284       -6.7025271261
 H        -8.0272723176       10.0257999962       -5.4348023557
 H        -8.5819056200        8.4499943676       -5.0555966570
 H        -7.8007644047        9.5843116232       -3.0385271438
 H        -6.3206960277       10.5390941525       -3.6483293872
 H        -6.3182901781        9.7501760518       -2.0626169808
 H        -4.2331012659        7.7380100868       -4.3942958147
 H        -4.5035231724        7.7496536195       -2.5108253089
 H        -4.1786410141        9.2031787171       -3.4162134703
 H        -7.8770291079        3.7240528937       -7.4828752321
 H        -8.1455824658        2.0778803846       -7.1704856519
 H        -6.7329775277        2.8953124541       -6.5707067116
 H       -10.6510893078        3.6201765709       -6.1285655436
 H       -10.7129106210        2.6728261335       -4.6594391244
 H       -10.2949181315        1.9586833851       -6.3162194100
 H        -5.7412344432        2.9587118809        0.4821593156
 H        -5.9437479123        3.3844511853       -1.1612783276
 H        -5.6505180072        1.7563488269       -0.8153563508
 H        -7.7602538660        1.4328153593        1.6859078490
 H        -7.8418675039        0.5504171497        0.1391831773
 H        -9.2938172041        1.1743125283        0.7586618615
 H       -14.1727264666        7.7873040816        0.8365410974
 H       -13.6374180314        6.6495657223       -0.2810595116
 H       -12.9433111732        8.2449899964       -0.3091490808
 H       -10.9191313826        7.9150637708        2.9343934260
 H       -11.9938943856        9.0875481609        2.1649769139
 H       -10.5096180835        8.6246122397        1.3191585947
 H       -14.5109210691        2.4653230908        7.0515345052
 H       -14.9867769352        3.2812051377        5.5065992699
 H       -14.4162966968        4.2621092168        6.7283366107
 H       -11.7552773158        3.2657706608        7.7220981084
 H       -11.7431803301        4.6388882104        6.7431843299
 H       -10.7197768045        3.2484793237        6.2791808548
 H       -12.1923099487       -3.1497410790        2.0480509306
 H       -12.2134954255       -1.4286410681        1.6938124163
 H       -12.6609745430       -2.0763804713        3.3531956301
 H       -10.9503696632       -3.7389821753        4.2613281760
 H        -9.2491072062       -3.2576715291        4.2290037975
 H       -10.0367011891       -4.0725841047        2.7693855554
 Na       -9.1333148536        5.5525040550       -1.8268040904
