117

 C        -8.3356276116       -2.2900951761        1.8143049425
 C        -9.8117281488       -1.9129876005        1.7873446885
 O       -10.2863870299       -1.3426847889        0.8086820005
 C       -10.6941537916       -2.0257375035        3.0474206301
 C       -10.4677929833       -0.7202404243        3.9929323424
 O        -9.5613521966        0.0620263922        3.7367194519
 C       -11.3838631641       -0.4411174209        5.2429709940
 C       -11.3998450492        1.0220893839        5.7608585583
 C       -12.5943239745        1.8586367636        5.2512474361
 O       -13.5202749955        1.3484290180        4.6382008340
 C       -12.6547155100        3.3230479405        5.6212582340
 C       -12.4646748361        3.9275615966        4.1885744767
 O       -11.3063940060        4.1276476703        3.8845172362
 C       -13.6745457921        3.9393644650        3.2209952205
 C       -13.5987934412        4.9969511642        2.0480025057
 C       -12.8006541799        6.2568962272        2.5653897899
 O       -12.6191705843        6.5126694979        3.7317342714
 C       -12.0553292592        7.0951923599        1.3996246627
 C       -11.0293676569        6.1574007903        0.7567560718
 O       -11.0455073987        6.0623715734       -0.4497378845
 C       -10.0050343477        5.3835993895        1.6391073105
 C        -9.6322525225        4.0462422428        0.9331250970
 C        -8.2240930026        3.9925892489        0.3140223215
 O        -7.7426840120        4.9927006594       -0.1868733014
 C        -7.6193839232        2.6422779299       -0.0520030019
 C        -8.3663242932        2.1403796292       -1.3727695010
 O        -8.9710693945        2.9682880476       -2.0166416892
 C        -8.3670118619        0.6547828595       -2.0354539660
 C        -8.6339289354        0.7573359667       -3.5058594961
 C        -7.8950700851        1.9533028860       -4.3023584174
 O        -6.7002162644        1.9816347381       -4.2266850596
 C        -8.6163361601        2.9311306590       -5.3915128441
 C        -8.4414063484        4.3111937251       -4.7898892210
 O        -9.3925372802        4.7856723231       -4.2123517454
 C        -7.1004668529        4.9383514635       -4.7420027878
 C        -6.6230558370        5.5936738188       -3.4437796763
 C        -7.0837857882        7.0632101565       -3.1995567233
 O        -8.2343693006        7.2799416953       -2.8237008420
 C        -6.2576727175        8.2314790063       -3.6199407926
 C        -6.4317620379        8.5700623188       -5.1584693490
 O        -5.5758688894        8.3452398257       -5.9797881555
 C        -7.7563152934        9.1023316560       -5.6697561783
 C        -6.6841990427        9.4989397990       -2.8220274151
 C        -4.7340108962        8.0254068032       -3.4203754830
 C        -7.8650087283        2.7219254822       -6.8048257675
 C       -10.1045203851        2.5648300281       -5.5479218518
 C        -6.1556463225        2.7196924959       -0.4636113798
 C        -7.7142978582        1.6737236146        1.0971099751
 C       -13.0074149840        7.7251541524        0.4178654127
 C       -11.2489959310        8.2721058947        2.1665567030
 C       -13.9834763415        3.6469355289        6.2547698992
 C       -11.5331067523        3.8646789033        6.5358192304
 C       -12.2250207613       -2.0234317105        2.6339687746
 C       -10.2383717205       -3.1363484584        3.9521770448
 H        -7.8346695507       -1.7260676581        0.9791715859
 H        -8.1964021316       -3.3514158273        1.7161466964
 H        -7.9364123843       -1.9197283587        2.8111071140
 H       -10.9605568737       -1.1185694399        6.1246027702
 H       -12.4241484117       -0.7147151103        5.0908738107
 H       -10.4874334854        1.5334263217        5.3954221353
 H       -11.5374611352        0.9571489715        6.8460249858
 H       -14.5859593071        4.1610737027        3.7862847381
 H       -13.7513928059        2.9887272545        2.8344443797
 H       -14.5322893975        5.3449751421        1.7217280884
 H       -13.0604496278        4.4590599387        1.2311001356
 H       -10.3978781680        5.2981097964        2.5977449345
 H        -9.0485387420        5.9439504266        1.8524083313
 H       -10.4585034843        3.8040668965        0.2436298144
 H        -9.6245699446        3.2020300327        1.5957581951
 H        -9.1898973080        0.1390659410       -1.4865746361
 H        -7.4106617066        0.2078575691       -1.6860938506
 H        -9.7262907113        0.9415056052       -3.6061265725
 H        -8.3209720541       -0.1613501835       -4.0852706236
 H        -6.9989196713        5.5629084448       -5.5695024432
 H        -6.3731268636        4.1526913098       -4.9341053061
 H        -5.5661025212        5.5712607932       -3.4575450304
 H        -6.9656118522        5.0398602309       -2.5817937709
 H        -7.7262169878        9.2761802473       -6.7203686869
 H        -8.0453057953       10.1070962053       -5.2072205257
 H        -8.5090281637        8.3641250260       -5.3810947926
 H        -7.7722549996        9.5591606856       -2.8758614747
 H        -6.1568209790       10.4147174007       -3.1463690592
 H        -6.5384817187        9.2478366339       -1.7553549729
 H        -4.5045318359        7.0803178001       -3.8466990958
 H        -4.5373362170        8.0354822152       -2.3594258244
 H        -4.1445170344        8.7707442266       -3.8931559591
 H        -8.0442704685        3.5102871433       -7.4871603690
 H        -8.1362076549        1.8465285940       -7.2723358771
 H        -6.7667201799        2.6909186625       -6.7519493882
 H       -10.5206832462        3.0350284162       -6.4450215772
 H       -10.6643966566        2.8941139794       -4.7225575553
 H       -10.2436920184        1.4996706352       -5.6129053238
 H        -5.5172993202        2.9338807147        0.3784172764
 H        -5.8596643969        3.4818294872       -1.2174092189
 H        -5.7199869902        1.8422750320       -0.9631346616
 H        -7.2435584239        2.0752365453        2.0221699643
 H        -7.1933991363        0.8559795296        0.6935152287
 H        -8.7470487582        1.3522258667        1.2164769855
 H       -13.6179562459        8.5575677359        0.8098714963
 H       -13.7952357462        6.9939013521        0.1576095973
 H       -12.5139730851        8.1139244175       -0.4989667206
 H       -10.3660410103        7.8134516419        2.6176235886
 H       -11.9759511265        8.6100148702        2.9976777826
 H       -11.0372633703        9.1936980555        1.6205658447
 H       -13.9434440588        3.5165862320        7.3982634539
 H       -14.7619768223        2.9840696510        5.7801843258
 H       -14.3518492786        4.6736435722        6.2041682329
 H       -11.3415342741        3.1018925830        7.2710204413
 H       -11.7445465332        4.7793095107        7.0888178521
 H       -10.6522323616        3.9881233162        6.0360413913
 H       -12.3766249526       -2.3823942479        1.6317617372
 H       -12.5447923361       -1.0051978097        2.7521953805
 H       -12.8115457697       -2.6971477630        3.2621690913
 H       -10.4963360336       -3.0138285774        5.0064328091
 H        -9.1274426106       -3.1843537693        3.9495492061
 H       -10.6229797187       -4.1164492984        3.5950070276
 Na       -9.3987815901        5.4215696555       -2.0466647443
