117

 C        -8.4435189837       -2.3439307341        1.8691548017
 C        -9.8849307329       -1.8248908175        1.7990868811
 O       -10.3684740829       -1.4770458414        0.7210846908
 C       -10.7092041398       -1.9075127402        3.1663850090
 C       -10.4173127556       -0.5334490399        3.9367632127
 O        -9.5147822269        0.1771218849        3.6537680860
 C       -11.3860085406       -0.3705273546        5.1601745994
 C       -11.4134382300        1.0099071256        5.8399878022
 C       -12.5484569773        1.8291928439        5.2857798783
 O       -13.4637243306        1.3188978137        4.5850297865
 C       -12.6286866275        3.3751480597        5.6092482716
 C       -12.3910386956        3.9150678115        4.1311753142
 O       -11.2626379502        4.0374639524        3.6828025126
 C       -13.5831860360        3.9407831483        3.2036546626
 C       -13.4622047243        5.0286709411        2.0940903083
 C       -12.7299354130        6.2981053324        2.6136097717
 O       -12.6793471723        6.5682080778        3.7948098008
 C       -12.0653332121        7.1012827794        1.5072925118
 C       -11.0396065550        6.1715677774        0.7327780538
 O       -11.1303098530        6.0815560139       -0.4680430454
 C       -10.0447530663        5.3739928970        1.4941192451
 C        -9.6034977839        4.0727248132        0.8516163348
 C        -8.2325808566        4.1055104080        0.2050192012
 O        -7.7337200950        5.1266641396       -0.2060369861
 C        -7.6106563778        2.5337867795       -0.0667643703
 C        -8.3852294893        2.1495873062       -1.2850945868
 O        -8.9951526659        2.9723202824       -1.9930983043
 C        -8.3549244948        0.7649138729       -1.9686985198
 C        -8.6369249596        0.8918496289       -3.3890542342
 C        -7.8116327946        1.8638290573       -4.3031466331
 O        -6.5890693241        1.9859273186       -4.2159430195
 C        -8.6127432183        2.7647605844       -5.3239173622
 C        -8.4962517994        4.2618018388       -4.7503072063
 O        -9.4476053677        4.8175269434       -4.2892647392
 C        -6.9881049489        4.8881637122       -4.7546494611
 C        -6.6674513756        5.5845157450       -3.4757914614
 C        -7.2396442471        6.9928789647       -3.3720038477
 O        -8.3273655238        7.2567538573       -2.8441655872
 C        -6.2610574515        8.1931847022       -3.6822281538
 C        -6.4000042249        8.5428984386       -5.2009965727
 O        -5.4713212550        8.3935647119       -5.9409613505
 C        -7.8222686908        9.1847140307       -5.5650802837
 C        -6.6940457339        9.4410825961       -2.8058503649
 C        -4.7464530257        7.9265428966       -3.3386376358
 C        -7.8918357092        2.5851188339       -6.6419005118
 C       -10.1001961221        2.5146610149       -5.5567284542
 C        -6.1324037756        2.6417303657       -0.4960463896
 C        -7.6706857896        1.5230059036        1.1686969189
 C       -12.9805651937        7.7302264802        0.4551473195
 C       -11.1818798520        8.2701430660        2.0945718703
 C       -13.9704988599        3.7491065547        6.1979040509
 C       -11.5409445654        3.8999528756        6.5828332520
 C       -12.1808219828       -2.0270101835        2.7090621987
 C       -10.3593836848       -3.1608797507        4.0541890618
 H        -7.8543446262       -1.8917972421        1.0985306410
 H        -8.4703022812       -3.4607175180        1.7533732848
 H        -8.0566898939       -2.0715206752        2.8740920714
 H       -11.1064891912       -1.1409697053        5.9156057280
 H       -12.4702390513       -0.5587847394        4.8793484728
 H       -10.4339416090        1.6095790478        5.6079208984
 H       -11.6813725671        0.8601059330        6.8573872269
 H       -14.4870452986        4.1507882124        3.7268968922
 H       -13.6975195836        2.9572914000        2.7815237309
 H       -14.4841537660        5.3923172043        1.7520556557
 H       -12.9209210692        4.5343646014        1.2799675026
 H       -10.4048610525        5.2462168308        2.4853157576
 H        -9.1683524033        6.0278532198        1.6974771217
 H       -10.4080079792        3.7742944366        0.1934022387
 H        -9.5708754847        3.2020668406        1.6162509178
 H        -9.0289701086        0.0808182734       -1.3489477831
 H        -7.2727139451        0.4853532947       -1.7121985978
 H        -9.7132541833        1.1974444134       -3.5830125143
 H        -8.4332680683       -0.0443511616       -3.9297630375
 H        -6.9195579903        5.5702346362       -5.5934181512
 H        -6.2718044800        4.1268537813       -4.9597698456
 H        -5.5988453655        5.6802805513       -3.1807824416
 H        -7.1552704163        5.0874271980       -2.6993685213
 H        -7.9508790262        9.3167036278       -6.6777812334
 H        -7.9555513333       10.1624002416       -5.1736923320
 H        -8.5658322873        8.5213162905       -5.1912884232
 H        -7.7844661448        9.5101633495       -2.8423998385
 H        -6.1975010486       10.4035057704       -3.0886774215
 H        -6.5075054724        9.1312455696       -1.7425663683
 H        -4.5135000100        7.0326861923       -3.8763976884
 H        -4.7045954936        7.6943130315       -2.2643706634
 H        -4.0314481396        8.7228068984       -3.5962460754
 H        -8.0638582905        3.3153794778       -7.3929964142
 H        -8.1004014047        1.6241837899       -7.0913375357
 H        -6.8514805215        2.5558317843       -6.4732249676
 H       -10.5042407211        3.3298440777       -6.2004002444
 H       -10.6652219054        2.4710071105       -4.6106268929
 H       -10.2950657855        1.5344149362       -6.0216431491
 H        -5.4640081818        2.9503680234        0.3529194846
 H        -5.8289416095        3.3342706845       -1.3267083627
 H        -5.6620192978        1.7294344769       -0.8883319059
 H        -6.9312921227        1.9009863600        1.8761734845
 H        -7.4921088971        0.4939133106        0.8548739198
 H        -8.6370099202        1.6578246852        1.5812643194
 H       -13.4992560959        8.6436752268        0.7697041429
 H       -13.8308272381        7.0243157104        0.2124281221
 H       -12.4416077726        8.0059870745       -0.4647595761
 H       -10.3060439075        7.8462208581        2.6369180758
 H       -11.8561884955        8.8559791690        2.7743285706
 H       -10.8710558564        8.9740319945        1.3443697509
 H       -14.0299312902        3.2825011741        7.1909243790
 H       -14.7565180049        3.3175116149        5.5896631365
 H       -14.1932967426        4.7678477508        6.4873676410
 H       -11.5075529742        3.2424222270        7.4446639352
 H       -11.6294000158        4.9096510831        6.9028807994
 H       -10.5376432757        3.8199321897        6.1185435263
 H       -12.1873431031       -2.6602981683        1.8381148965
 H       -12.4926730501       -0.9980791289        2.4848256420
 H       -12.8658933826       -2.5041564772        3.4039955987
 H       -10.7404240541       -3.1306576560        5.0799023851
 H        -9.2505142943       -3.2455604309        4.1469836686
 H       -10.7275558417       -4.1113276957        3.5448193438
 Na       -9.4813355642        5.4180258790       -2.0694263474
