117

 C        -8.4684921502       -2.4045431238        1.9160015773
 C        -9.9724428734       -2.0164475779        1.7894903334
 O       -10.3804892801       -1.6201380235        0.7212326683
 C       -10.8184555817       -1.8564413009        3.1341299069
 C       -10.5552966397       -0.4863165306        3.9707138199
 O        -9.6909876861        0.3170202195        3.5792004273
 C       -11.3488188522       -0.3681038544        5.2951729339
 C       -11.2811855673        1.0822056388        5.8620971778
 C       -12.5219652998        1.8469900697        5.2964965957
 O       -13.3758069540        1.3031435257        4.6802478375
 C       -12.5810017204        3.3776970431        5.5732249726
 C       -12.3924248814        3.7593767410        4.1216760534
 O       -11.2460762067        3.7553066296        3.6879336767
 C       -13.5766221906        4.0989726703        3.2031140009
 C       -13.2354406347        5.0221348314        2.0217230075
 C       -12.6063469781        6.3385077927        2.5587527705
 O       -12.7325494692        6.8247230061        3.6508400806
 C       -11.9094410468        7.2043552445        1.4188159501
 C       -11.0469497836        6.3193813196        0.5878660014
 O       -11.3023142999        6.1253328455       -0.6062681160
 C        -9.7792458067        5.7381487437        1.2105595948
 C        -9.5473095760        4.2062407097        0.9485705484
 C        -8.1210520070        3.9837726797        0.2813200883
 O        -7.6311738189        4.9965428773       -0.2106344032
 C        -7.5718596617        2.5977528400       -0.0848589516
 C        -8.4085207970        2.2387506700       -1.3583076251
 O        -9.1405655778        3.0052240456       -1.9070814851
 C        -8.0872540403        0.9003922138       -1.9478410577
 C        -8.6892240435        0.6799694848       -3.3305869988
 C        -7.9284675000        1.7024602698       -4.2046890581
 O        -6.7677660068        1.8040537273       -3.9406764514
 C        -8.5382317120        2.6368259018       -5.3270338575
 C        -8.4085505165        4.1834101966       -4.8154349209
 O        -9.4641648585        4.7291126662       -4.4543121831
 C        -6.9888931562        4.8439416900       -4.7830742717
 C        -6.7144399543        5.4743500567       -3.3872984073
 C        -7.2738578361        6.9733700815       -3.3350955606
 O        -8.4323688353        7.1529738977       -3.0197975856
 C        -6.2696015801        8.1665592888       -3.6209666666
 C        -6.4824012935        8.6259766920       -5.1281021782
 O        -5.5186440378        8.4304078755       -5.8451710277
 C        -7.7604820467        9.2502352628       -5.5944930973
 C        -6.7270999548        9.3650969287       -2.7187696786
 C        -4.7765278695        7.7461785324       -3.3063629829
 C        -7.7917746648        2.4633218738       -6.6531117541
 C       -10.1119537182        2.3130313532       -5.4562198446
 C        -6.0681348566        2.8102420761       -0.4680540031
 C        -7.7749593445        1.5513722963        1.0386499643
 C       -13.1004765207        7.8112915167        0.6396019984
 C       -11.0391183161        8.2820652762        2.0512058161
 C       -13.9045155341        3.7834727619        6.1271051397
 C       -11.4426176007        3.9143684136        6.4661180029
 C       -12.3325559677       -1.8573645058        2.7261657513
 C       -10.3991195410       -3.0516733087        4.0981625118
 H        -7.9346620297       -2.2431641150        0.9665598315
 H        -8.4208535358       -3.4005859015        2.1885953528
 H        -8.0773097338       -1.7952166075        2.7089695418
 H       -10.8845092858       -1.0443051655        6.0112500812
 H       -12.3253253226       -0.6683022987        5.1226163706
 H       -10.4401039063        1.5159334179        5.4666441997
 H       -11.3173491317        1.0455190460        6.9810517441
 H       -14.4233671210        4.7153945652        3.6492211790
 H       -14.1051036936        3.1597659207        2.8608037201
 H       -14.1736867607        5.2171619674        1.5669056652
 H       -12.5480272426        4.5336988399        1.3105662796
 H        -9.7164119963        5.7748313381        2.3250456373
 H        -8.9976850996        6.4467884858        0.8987816038
 H       -10.3544973039        3.7206819530        0.3133984733
 H        -9.7013525065        3.7938013967        1.8944942115
 H        -8.4355761209        0.2479624002       -1.1988610147
 H        -7.0617274190        0.8097043706       -1.8497829667
 H        -9.7355679358        0.7304002020       -3.4869441421
 H        -8.3243595269       -0.2996066524       -3.6742150111
 H        -6.8346367890        5.6070867823       -5.5929451260
 H        -6.2733176260        3.9725944685       -4.9727416895
 H        -5.6707690150        5.5573809248       -3.1633026785
 H        -7.1997797921        4.9333221892       -2.4864287570
 H        -7.9012976069        9.0806713212       -6.6087231176
 H        -7.5167260748       10.3434160054       -5.5628150207
 H        -8.6673465384        8.9547007801       -5.0512328253
 H        -7.7756624490        9.6019128297       -2.8984557627
 H        -6.1675382731       10.2206728733       -3.0648341987
 H        -6.5122301505        9.1958429199       -1.6922870706
 H        -4.2250193874        7.4285725040       -4.2333136986
 H        -4.6798445407        7.0020720345       -2.4858038241
 H        -4.3431922950        8.6878032358       -2.9650709898
 H        -8.2457148118        3.0310770416       -7.5072829481
 H        -7.7814933646        1.4218079135       -6.9994222006
 H        -6.6679044063        2.6913200279       -6.5955076232
 H       -10.6270697166        3.0269817905       -6.1169665533
 H       -10.6620013776        2.2087299316       -4.5233562337
 H       -10.2057623159        1.2882879951       -5.8667965352
 H        -5.5423710902        3.4459775868        0.1754819977
 H        -5.9917459074        3.3332671973       -1.3921009023
 H        -5.3832544923        1.9820923607       -0.5997362757
 H        -6.9136882751        1.6227937121        1.7232863945
 H        -7.7884543933        0.5506710652        0.6223047860
 H        -8.7010512284        1.8655362249        1.5557179168
 H       -13.7248620109        8.3547236791        1.3707636468
 H       -13.6949698272        7.0722275117        0.1240444100
 H       -12.8479978143        8.5798203254       -0.0829902750
 H       -10.5849341950        7.8892319562        2.9093591561
 H       -11.6991927639        9.1124915616        2.3386224728
 H       -10.2449325896        8.5865725281        1.3667937457
 H       -14.0747106385        3.5209795209        7.1645933658
 H       -14.7518149298        3.3357473264        5.6373906502
 H       -13.9600113258        4.8334975009        6.1793356749
 H       -11.6716059447        3.7277726844        7.5461775269
 H       -11.4108789343        5.0395045671        6.2813089241
 H       -10.4382154826        3.5865660089        6.2927399547
 H       -12.6393143218       -2.8745940632        2.4392486087
 H       -12.4030911527       -1.1456604364        1.9227929170
 H       -13.0186704408       -1.4872502060        3.5065600024
 H       -11.1987805717       -3.3179890471        4.7884048573
 H        -9.5300966075       -2.8128521138        4.6859537715
 H       -10.1433622794       -3.9389672841        3.5806168570
 Na       -9.6199621450        5.4276755310       -2.0104556777
