117

 C        -8.4726272029       -2.3603238305        2.0933941929
 C        -9.9601528829       -1.9636976364        1.9148482304
 O       -10.4068273690       -1.6336359570        0.8386598853
 C       -10.9075066394       -1.8529278466        3.1410758448
 C       -10.6060576347       -0.5359096575        3.9213327391
 O        -9.9885806550        0.3659609156        3.3873317167
 C       -11.0547906802       -0.4488793989        5.4731883765
 C       -11.1633214493        1.0196359019        5.7941282244
 C       -12.4335189469        1.7368752644        5.4426752538
 O       -13.4501847074        1.2226659902        5.0168652584
 C       -12.5068304782        3.3481390760        5.5361080092
 C       -12.3869578678        3.8254536555        4.0548268168
 O       -11.2651958498        3.7953650298        3.5679912262
 C       -13.5532864383        4.2839287501        3.2519838403
 C       -13.0106785591        5.0372613059        1.9857342138
 C       -12.6156031812        6.4347092958        2.4662198883
 O       -12.7673742318        6.8084707663        3.6112212268
 C       -11.8502056169        7.4445552314        1.2809056294
 C       -10.9590453760        6.5103822759        0.3989644594
 O       -11.2998133859        6.0573343017       -0.6922177803
 C        -9.6827172775        6.1128181081        1.0766289809
 C        -9.3042958483        4.5699059272        1.0741624186
 C        -8.1610098914        4.2025623628        0.1912758725
 O        -7.5227374140        5.0897043320       -0.3149723445
 C        -7.6526326261        2.7226676995       -0.1398483373
 C        -8.4075201649        2.1169135567       -1.3305748832
 O        -9.1822794622        2.8258471730       -1.9979621713
 C        -8.2472249016        0.6712490180       -1.8520214582
 C        -8.6338228710        0.7230975307       -3.3597589800
 C        -7.8541407391        1.7273368674       -4.1878584771
 O        -6.6608802443        1.8972059353       -4.0001479178
 C        -8.6115270557        2.5436364293       -5.2933457415
 C        -8.4960538231        3.9794380185       -4.7101566629
 O        -9.4628707124        4.5450469911       -4.2936789874
 C        -7.0568379883        4.6403990826       -4.7223629427
 C        -6.7093146945        5.3990099234       -3.4786380847
 C        -7.2890701219        6.8575127359       -3.3437670673
 O        -8.4583971478        7.1015931239       -3.0302909311
 C        -6.2767893510        8.1633793280       -3.5573684734
 C        -6.4389127900        8.5389156851       -5.0498231016
 O        -5.5851924305        8.3279090280       -5.8717532467
 C        -7.7098799446        9.2796969927       -5.4832137268
 C        -6.8408687690        9.2353082106       -2.5574352760
 C        -4.7991457365        7.8212046350       -3.2813917627
 C        -7.7834023597        2.3012327689       -6.6096734251
 C       -10.1057613647        2.1552844733       -5.5697999134
 C        -6.1459802736        2.7619918194       -0.3771237560
 C        -7.8665424229        1.7422891224        1.1181249259
 C       -13.0191324415        8.0948317855        0.4767193661
 C       -11.0838411495        8.4760955886        2.0773985303
 C       -13.8717863078        3.7042959560        6.1966373863
 C       -11.3595829322        3.9731886835        6.3767905568
 C       -12.3893213091       -1.9383296237        2.6469070807
 C       -10.7038888502       -3.0656629725        4.0454192403
 H        -8.0724470122       -2.4168921788        1.0901102568
 H        -8.2574318986       -3.3342072252        2.6707010746
 H        -8.0574644647       -1.4711316667        2.5768898327
 H       -10.2657390601       -0.8626295877        6.1280043633
 H       -12.0540213802       -1.0627370804        5.6477985676
 H       -10.3247535889        1.4931046590        5.1158204982
 H       -10.9737025382        1.2159684942        6.8299211973
 H       -14.1453419781        4.9881056619        3.7404447201
 H       -14.2442325552        3.4835125376        3.1303695393
 H       -13.8572516673        5.1455065844        1.2502537920
 H       -12.1817224174        4.5306942687        1.5374959530
 H        -9.5829592208        6.4303352420        2.1269097264
 H        -8.8605515947        6.6442425393        0.5038518305
 H       -10.0396965120        3.9315592403        0.6392923088
 H        -9.1445453984        4.1872738270        2.1488307520
 H        -9.0069546248       -0.0174304465       -1.3676761607
 H        -7.2822298492        0.2879500889       -1.4120204242
 H        -9.6609851944        1.0373244761       -3.6540434540
 H        -8.5561246298       -0.3485724660       -3.6339168619
 H        -7.0412440194        5.2259885030       -5.6231533339
 H        -6.3285061337        3.8883173910       -4.8114040366
 H        -5.6212310728        5.4910579588       -3.3153160669
 H        -7.0330924049        4.9002928672       -2.6300866289
 H        -8.1161971201        8.8621579160       -6.4723808624
 H        -7.5922338886       10.3299590279       -5.6040665277
 H        -8.4978828802        8.9727869644       -4.7887140149
 H        -7.8718224566        9.5115187593       -2.7227152894
 H        -6.2824815267       10.1571444246       -2.7028815875
 H        -6.5212698343        8.8735708295       -1.5794545402
 H        -4.4346233395        7.0251423215       -3.8649287202
 H        -4.6723475743        7.6080645657       -2.2477343005
 H        -4.2588620942        8.7120506613       -3.5606709140
 H        -8.1509665777        2.9572847726       -7.3746328148
 H        -7.9317022373        1.3075373501       -7.0507804788
 H        -6.7559912288        2.4164424269       -6.5154031915
 H       -10.2619719602        2.4709081958       -6.5501031491
 H       -10.7957509180        2.7077190224       -4.9582380965
 H       -10.3579269349        1.1445735696       -5.4646106911
 H        -5.5579421063        3.2080171399        0.4513967454
 H        -5.8437722507        3.3908860754       -1.2105348561
 H        -5.6400759709        1.8239939531       -0.4684348239
 H        -7.5731893247        2.2197904067        2.0352512929
 H        -7.1453886257        0.9131084310        0.9813776603
 H        -8.9064428733        1.4893801017        1.1474831141
 H       -13.8449954167        8.3850277698        1.1402338103
 H       -13.2975005168        7.5245308259       -0.4392347158
 H       -12.6741286549        9.0570778068        0.0599743386
 H       -10.5921260394        8.0277829166        2.9986333511
 H       -11.7894539999        9.1728053367        2.4421737907
 H       -10.2553470473        8.8649405485        1.4552992111
 H       -13.8706483286        3.9101975023        7.2712082615
 H       -14.7119974579        2.9754990736        6.1602249426
 H       -14.1856084216        4.7298488703        5.7833724082
 H       -11.2314911709        3.4961948242        7.3061417288
 H       -11.6320921154        4.9560811033        6.5374574275
 H       -10.3673097814        4.0054705067        5.8815970805
 H       -12.5948594966       -2.9881611764        2.4640239401
 H       -12.5710285394       -1.3679686434        1.7263560478
 H       -13.0274572254       -1.5310984789        3.4069364479
 H       -11.4425763515       -3.1268671053        4.8265048105
 H        -9.7142829332       -3.1919153727        4.4575454709
 H       -10.8511838089       -3.9880692396        3.4689427354
 Na       -9.5966641896        5.2906885674       -2.1527120818
