117

 C        -8.5281261429       -2.2535371527        2.3382728553
 C        -9.9883067845       -2.0184160673        1.9351334855
 O       -10.3192572501       -1.5816722829        0.8496886146
 C       -10.9833810884       -1.9458654361        3.1765627287
 C       -10.6557716213       -0.5798724105        3.8345041246
 O       -10.2174372949        0.2343565582        3.0622818644
 C       -11.0213046639       -0.4274083898        5.3761828813
 C       -11.0012309722        1.0895550707        5.8389907862
 C       -12.3529464342        1.7467790057        5.5562591759
 O       -13.3136926890        0.9688538956        5.4441009007
 C       -12.4974215661        3.3415554666        5.5501031948
 C       -12.2713695778        3.8833335878        4.0606839629
 O       -11.1838573131        3.8980560560        3.4918999324
 C       -13.4648413402        4.2638422997        3.1617743402
 C       -13.1995635432        5.1537731270        1.9255478785
 C       -12.6280320553        6.5610061662        2.3369760168
 O       -12.6701853378        7.0209537745        3.4414290393
 C       -11.8550129596        7.5326010457        1.2014530996
 C       -10.8029701236        6.5919027593        0.4795084701
 O       -11.1159840437        6.1847493423       -0.6431118915
 C        -9.4127414791        6.2399938319        1.0543732385
 C        -9.1878580906        4.7385918083        1.0158747180
 C        -8.0064163434        4.3156655084        0.1144906396
 O        -7.5377146760        5.1106296150       -0.6987178621
 C        -7.7691347137        2.8143607810       -0.0125346929
 C        -8.5140786618        2.2686119987       -1.2742445197
 O        -9.2476749955        3.0178456051       -1.8616299967
 C        -8.2711738655        0.7606560828       -1.7801763173
 C        -8.6430387677        0.6053348902       -3.2331774817
 C        -7.8701708462        1.5347376282       -4.2119250432
 O        -6.7103253444        1.7384207770       -3.9184881200
 C        -8.5566486169        2.3781154118       -5.3318376258
 C        -8.4777781702        3.8636442448       -4.6959197820
 O        -9.5195683021        4.3481502667       -4.2616604783
 C        -7.1642129423        4.6692012171       -4.9012411486
 C        -6.6572188733        5.3096062860       -3.5588351721
 C        -7.2161266403        6.7696794263       -3.2564008377
 O        -8.3825778929        6.9623867594       -2.9961343563
 C        -6.3265113216        8.0775331465       -3.4682038787
 C        -6.5222753720        8.4739848936       -5.0017372742
 O        -5.7176494827        8.1560870379       -5.8457900075
 C        -7.7684318526        9.2384853389       -5.3711756732
 C        -6.8367177660        9.2235569968       -2.5647940099
 C        -4.8418510310        7.8820368263       -3.2239913767
 C        -7.7073314128        2.2868588376       -6.6270815411
 C        -9.9693477361        2.0285407529       -5.6024500680
 C        -6.2904776095        2.6170733079       -0.3699882938
 C        -8.1441867515        2.0538111155        1.2403391063
 C       -12.8282720694        8.0662557953        0.1806919219
 C       -11.1922221479        8.6841372168        2.0265024666
 C       -13.8661344210        3.7359529405        6.1777804960
 C       -11.3406258133        3.8981762344        6.3281944833
 C       -12.4464932176       -1.7808667111        2.7176274733
 C       -10.8930209269       -3.1355628157        4.0550130753
 H        -7.8900408429       -2.3542781701        1.4547837808
 H        -8.4876002304       -3.1353558155        2.8872938376
 H        -8.2580053394       -1.3679802542        2.9421185382
 H       -10.2478774918       -1.0273155535        5.8695138411
 H       -11.9068344695       -0.8910709456        5.5452206335
 H       -10.2129161322        1.5727791681        5.3204526981
 H       -10.8466025899        1.2180473186        6.9624149827
 H       -14.3389567985        4.6843520297        3.7895528571
 H       -13.9744735328        3.3212106717        2.8346223406
 H       -14.0900415171        5.2413268927        1.3255774078
 H       -12.4652679823        4.5167210986        1.3298872352
 H        -9.2996273636        6.5782001854        2.0786715016
 H        -8.5802426456        6.5704631969        0.4175467752
 H       -10.0505086127        4.2012761658        0.4784978370
 H        -8.9913125025        4.2592520284        1.9367848554
 H        -8.9318213821        0.1181907540       -1.2026283706
 H        -7.3353005791        0.4555932682       -1.3979083441
 H        -9.6655790262        0.5472424472       -3.5232826134
 H        -8.2596275841       -0.3727400033       -3.5123838689
 H        -7.4698813236        5.4223654648       -5.6495580712
 H        -6.3491104639        4.0097749322       -5.3313900460
 H        -5.5781226574        5.3369502693       -3.5437060854
 H        -6.8599969527        4.7097883037       -2.6054832128
 H        -7.8984548525        9.1991832937       -6.4108117273
 H        -7.4573579485       10.2839745567       -5.1190895816
 H        -8.7111085091        8.9666263293       -4.9632375380
 H        -7.8890222840        9.4232631691       -2.7884792900
 H        -6.3052876532       10.1832225689       -2.6858147163
 H        -6.6187312516        8.8824009218       -1.5480368919
 H        -4.4935171082        6.9337066449       -3.6709873715
 H        -4.7119270119        7.7360507239       -2.1357093187
 H        -4.2366891304        8.6990789805       -3.6014648500
 H        -7.8955272451        3.1051843975       -7.3187259466
 H        -7.9653215241        1.4114266507       -7.1644306811
 H        -6.6129483989        2.2345867006       -6.3698033630
 H       -10.4842014850        2.6548823433       -6.3984128244
 H       -10.4806182561        2.1948120473       -4.6483035225
 H       -10.0973468950        0.9348470495       -5.8794023307
 H        -5.6055680882        2.5355832899        0.4590349465
 H        -5.7915375511        3.3896428856       -0.9944657134
 H        -6.0609009347        1.6272866955       -0.8128016759
 H        -7.7740367967        2.6258389627        2.1178826447
 H        -7.5277101890        1.1802675491        1.2713797122
 H        -9.2240874107        1.8448174116        1.3262245715
 H       -13.5725845213        8.6165917393        0.7670326990
 H       -13.2518929826        7.2522494839       -0.4029876918
 H       -12.4072719245        8.7489893156       -0.5886516929
 H       -10.4951741789        8.3282004468        2.7275027217
 H       -12.0619900544        9.0355725426        2.6654578836
 H       -10.7173233262        9.4109621296        1.4149951622
 H       -13.9992559224        3.0877366961        7.0443931022
 H       -14.7309126731        3.3946879793        5.6472489653
 H       -14.0128887608        4.7456710583        6.4272291251
 H       -11.1003218513        3.3106710701        7.2430777128
 H       -11.4889875358        4.9704896477        6.6467209620
 H       -10.4946692384        3.8434352143        5.7079947882
 H       -12.6387397021       -2.5877183168        2.0049057589
 H       -12.6682208290       -0.8634975030        2.1880741281
 H       -13.0876710110       -1.8009203226        3.6190335664
 H       -11.3954013888       -2.9696890451        5.0296506732
 H        -9.8549450231       -3.4868552722        4.2588758890
 H       -11.3844926940       -4.0382776928        3.6568448162
 Na       -9.6434347737        5.2217809157       -2.0782118771
