117

 C        -8.5949913791       -2.3955849706        2.3926159701
 C        -9.9880114819       -1.9500297272        1.9333115489
 O       -10.3331552934       -1.9921404117        0.7773156736
 C       -11.0896896535       -1.8471349700        3.0617071497
 C       -10.7683839300       -0.4572382281        3.7750876639
 O       -10.4095333790        0.4567713291        3.0541436170
 C       -10.8258096121       -0.2176027767        5.3245427182
 C       -10.7969537953        1.2781838236        5.7629396384
 C       -12.2431765539        1.8410866973        5.5421510943
 O       -13.2091305650        1.1012480890        5.6429571049
 C       -12.4204189406        3.4362383317        5.4481923462
 C       -12.1202900589        3.9354854389        4.0027776433
 O       -11.0207999521        3.9973281690        3.4368267126
 C       -13.3363184087        4.4821753823        3.2566901175
 C       -12.8988331033        5.2652693600        2.0106276905
 C       -12.4771684673        6.6397594412        2.4010325399
 O       -12.6694888590        7.1387603594        3.4694657872
 C       -11.8120257124        7.5503295394        1.1605184751
 C       -10.7113061788        6.7028834733        0.4681417304
 O       -10.9675836900        6.2620208100       -0.6714591082
 C        -9.3497138474        6.3898351452        1.0771288881
 C        -8.9295742217        4.8842552822        1.3279525316
 C        -8.0723794908        4.3479569737        0.1631758034
 O        -7.6010612491        5.1478152382       -0.6289610897
 C        -7.8367892727        2.7818976110        0.0915280978
 C        -8.6049498432        2.2723819184       -1.1452378457
 O        -9.5140272797        2.8705457159       -1.6477415487
 C        -8.4015323108        0.8102299669       -1.7149641610
 C        -8.8889185945        0.6830857374       -3.0619761015
 C        -7.8494333969        1.4989125489       -4.0398021899
 O        -6.6691917737        1.4681508162       -3.8564343393
 C        -8.4281401386        2.3273884187       -5.2992498978
 C        -8.5301540979        3.8179590688       -4.8224591101
 O        -9.5310704664        4.2266284425       -4.1982601042
 C        -7.3677169289        4.8245936223       -5.0748681183
 C        -6.6324995748        5.4002933309       -3.8824707613
 C        -7.2268160797        6.7246394095       -3.3829566980
 O        -8.3077006503        6.8304745917       -2.8737311289
 C        -6.3231936341        7.9934465773       -3.4766351477
 C        -6.5853725363        8.3514781684       -5.0571696977
 O        -5.9485438474        7.7578926129       -5.8911079232
 C        -7.7979829418        9.2409128701       -5.4352194767
 C        -6.8460931556        9.0629020900       -2.4354263378
 C        -4.7858852392        7.7136734782       -3.2147913022
 C        -7.4243010415        2.0584094076       -6.3835001195
 C        -9.8627878837        1.8828216970       -5.6835342044
 C        -6.2799940714        2.7042341293       -0.0983901157
 C        -8.4186030542        1.9196164005        1.3316936956
 C       -13.0492629353        7.8329564133        0.2758746107
 C       -11.2681220502        8.8254159732        1.7140117243
 C       -13.8548565669        3.7368011637        5.9101474230
 C       -11.3281871778        4.1071995478        6.2995253340
 C       -12.4818603916       -1.8336628928        2.3543716515
 C       -11.1147633221       -3.0506113434        4.0275960472
 H        -7.7436393232       -2.0401096617        1.7330737491
 H        -8.6906698331       -3.4525600410        2.2482713750
 H        -8.4792022734       -2.1149710543        3.4450574675
 H       -10.0350920079       -0.8797477795        5.8143010980
 H       -11.7950542829       -0.6345478261        5.7086804687
 H       -10.1214256670        1.9068741368        5.1974679711
 H       -10.4031280781        1.4122779253        6.8480403790
 H       -14.0823837643        5.0021096762        3.7771788295
 H       -13.9588830980        3.6548631450        2.9890993416
 H       -13.7682844689        5.2557058817        1.3018759284
 H       -12.1369166108        4.7386816294        1.4775046538
 H        -9.2450486676        6.7857308077        2.1626437460
 H        -8.7731031864        6.8629256608        0.3101376350
 H        -9.8850421760        4.3428776225        1.4897448800
 H        -8.2190008148        4.8598829080        2.1343580095
 H        -8.8730927716        0.1096562128       -0.9197610107
 H        -7.3051585474        0.5322942532       -1.6294085332
 H        -9.8835282520        0.8717940686       -3.3832143212
 H        -8.7306557083       -0.3390106113       -3.4746749826
 H        -7.8121181241        5.5901827901       -5.6644241186
 H        -6.6202409172        4.3333653683       -5.6432102707
 H        -5.6238454959        5.4915183054       -4.1097816555
 H        -6.6148271379        4.7010481347       -3.0324557142
 H        -7.8615867359        9.5299413982       -6.4461761267
 H        -7.8714281786       10.0897774151       -4.7005521339
 H        -8.7304180801        8.6133516048       -5.2987660935
 H        -7.9438467386        8.9625406926       -2.5945680593
 H        -6.6116212929       10.0721213416       -2.7583237286
 H        -6.6266685208        8.9444043357       -1.3881792633
 H        -4.2735357049        7.6019542703       -4.1801335051
 H        -4.6037438063        6.7887306946       -2.7077368753
 H        -4.3175722946        8.5021456588       -2.6710582076
 H        -7.6536925586        2.6114379391       -7.2818030617
 H        -7.4400110664        1.0189779786       -6.6020781142
 H        -6.3954106474        2.3459452985       -6.0674214830
 H       -10.1657803152        2.3031236162       -6.6037689501
 H       -10.5265492932        2.2603654258       -4.9656397038
 H        -9.9339872063        0.8380285469       -5.8318741436
 H        -5.6702661322        3.3902061868        0.4708974686
 H        -6.0648734955        2.9671595845       -1.1226524480
 H        -5.7831520539        1.7251633527        0.0077873242
 H        -7.6547379864        1.9487242902        2.1132372643
 H        -8.5627272795        0.8832780473        1.0221978364
 H        -9.4104660895        2.2337245419        1.7141867052
 H       -13.8238936798        8.4476567074        0.7923005134
 H       -13.4558603182        6.8562556743        0.0124264369
 H       -12.7029049543        8.2557746310       -0.6809622565
 H       -10.4777820628        8.4957859873        2.3590775825
 H       -12.0482598078        9.3535087642        2.3384356493
 H       -10.8680898445        9.4576034208        0.8814683863
 H       -13.9165997016        3.5646753641        7.0202766792
 H       -14.5618248444        3.0009700960        5.4458424297
 H       -14.3614339493        4.6460594013        5.5498975388
 H       -11.5128165213        4.1773313621        7.3571286835
 H       -11.1813337018        5.1441796039        5.9523404751
 H       -10.4388407732        3.6046142340        6.1302938847
 H       -12.6009720212       -2.7504917413        1.7664118775
 H       -12.5210029668       -1.0902534079        1.5984653948
 H       -13.2750939311       -1.6775305935        3.0733244293
 H       -12.0960863886       -3.1815321816        4.4861563686
 H       -10.4811017026       -2.9346351288        4.8788008788
 H       -10.8954169025       -3.9780961912        3.6074545359
 Na       -9.6178344777        5.1844164688       -2.2345837712
