117

 C        -9.0011338433       11.9242347889       -3.2301896698
 C        -7.8896276090       10.7365895113       -3.3907553622
 O        -8.2002608910        9.5797653396       -3.2085491990
 C        -6.4300037107       11.1929828203       -3.4269471153
 C        -6.0335062959       11.3611957602       -1.9002740727
 O        -6.4182034590       12.3451941117       -1.3485571089
 C        -5.4213842621       10.1765191149       -1.1708134340
 C        -6.4387845783        9.0223227196       -0.7963482581
 C        -5.6690492091        7.8312900180       -0.3595828170
 O        -4.8054219843        7.3344707484       -1.1032199751
 C        -5.7977953022        7.3266185326        1.1868082430
 C        -7.2944130036        6.9270496036        1.5709255518
 O        -7.7345730873        7.2825679929        2.6467619683
 C        -8.1015652693        6.1302040131        0.5619923430
 C        -9.6647431687        6.3302212840        0.7099158942
 C       -10.4033797300        5.0993859172        0.2658537872
 O       -10.0981741602        3.9973745197        0.6999848598
 C       -11.7071756374        5.2626585783       -0.6903581885
 C       -12.6348586270        4.0136396920       -0.3111661478
 O       -12.4048299567        2.9589150705       -0.8601517452
 C       -13.8192367622        4.3542865393        0.6110886488
 C       -14.6246591281        3.1177407845        0.9322585727
 C       -13.7197123861        2.1204739190        1.7905740032
 O       -12.6786719800        2.4654427846        2.3532567739
 C       -14.3506862721        0.7712995701        2.2102231954
 C       -13.4849213794       -0.4302868582        1.7918043543
 O       -12.4519094160       -0.2326439617        1.1842618321
 C       -13.7730084730       -1.7450079213        2.3600619094
 C       -12.9694758505       -2.8479646401        1.6518345361
 C       -13.0074447693       -2.6712230446        0.0672189857
 O       -13.8974613220       -2.0876294672       -0.4711046292
 C       -11.9277059598       -3.2097244713       -0.9085848656
 C       -10.5146757452       -2.3957512685       -0.4619596323
 O       -10.2672797785       -2.4936860549        0.6854352420
 C        -9.7193963371       -1.7643378247       -1.5740016237
 C        -8.3788638902       -1.1558051582       -1.2695164210
 C        -8.5765368574        0.1626790920       -0.5177094747
 O        -9.5961761050        0.7699956627       -0.8038487785
 C        -7.4657330608        0.8803767295        0.2605972089
 C        -7.9546386132        0.7585314043        1.8111678102
 O        -8.9401366169        1.3365796360        2.1068149983
 C        -7.2293197498       -0.1227399450        2.7491736640
 C        -5.9627233619        0.4690422921        0.0445745581
 C        -7.6210853362        2.3534764633       -0.2876179891
 C       -11.5894628069       -4.6041798552       -0.4445606924
 C       -12.3034857562       -3.0721590956       -2.4526528402
 C       -14.4676642899        0.8286716033        3.7717751038
 C       -15.7369818081        0.5088729280        1.6698035062
 C       -12.3926404928        6.6699760349       -0.2782434665
 C       -11.4003747643        5.4094200190       -2.1814688228
 C        -4.9288897189        6.0433976190        1.4672032656
 C        -5.3903511071        8.4271366928        2.1624016425
 C        -5.7219719813       10.0201411502       -4.1638022773
 C        -6.1646532954       12.5194956924       -4.2493052209
 H        -9.3559062111       12.2097290041       -4.2092424045
 H        -8.4927160724       12.6214963610       -2.5799875507
 H        -9.7851820212       11.5042673116       -2.6321822967
 H        -5.0017901449       10.5972910400       -0.2597830915
 H        -4.6502526248        9.7181247054       -1.8583780560
 H        -7.0391957816        8.8365853405       -1.7316423864
 H        -7.0655968897        9.4390362503       -0.0060009353
 H        -7.7530771006        5.0446808509        0.5396992096
 H        -7.9146069243        6.5255416233       -0.4441660127
 H        -9.9842217299        7.1876482812       -0.0192746982
 H        -9.9813190070        6.6651390718        1.7552704557
 H       -14.3996153560        5.1876078852        0.1992392909
 H       -13.2330334038        4.7331805567        1.5290925403
 H       -14.9333021081        2.6636515020       -0.0299898461
 H       -15.5614809881        3.3206465610        1.4975001261
 H       -14.8164650064       -1.9879588003        2.2226735384
 H       -13.5783196760       -1.7197538493        3.4512983270
 H       -13.5257230770       -3.8055585044        1.9406599390
 H       -11.8687224399       -2.8754614047        1.9378018071
 H       -10.4233720487       -0.9916124915       -1.8959642781
 H        -9.6904812897       -2.4874423568       -2.4338545107
 H        -7.8580840991       -0.7014969089       -2.1156609582
 H        -7.7033396984       -1.8072845434       -0.8018807383
 H        -7.2233631045       -1.1548220122        2.3447431603
 H        -7.5824068295       -0.0289424390        3.7166509066
 H        -6.1779769572        0.1717542825        2.8582024063
 H        -5.6588822890        0.4545309387       -0.9015432023
 H        -5.8112076284       -0.6168338304        0.3818503546
 H        -5.2827541106        0.9853394861        0.6902248998
 H        -8.6743198698        2.7098806730       -0.2329065732
 H        -7.3434370178        2.3913713056       -1.3007228089
 H        -6.9213994888        2.9608963141        0.2708241834
 H       -10.4866933498       -4.8021962632       -0.5233798196
 H       -12.2093561369       -5.3910963167       -0.8573028572
 H       -11.8503456345       -4.5839444551        0.6555084676
 H       -11.9922847945       -2.0403352613       -2.6778379543
 H       -13.3750221708       -3.2140355139       -2.5575502518
 H       -11.5896009180       -3.7696946560       -2.9667218228
 H       -15.2213504092        1.5612144884        4.1241831566
 H       -13.5353518583        1.1515739113        4.1900123465
 H       -14.7436337331       -0.1419770335        4.1493147102
 H       -16.5577727508        0.9487447038        2.1376495264
 H       -16.0298302547       -0.5072278452        1.8004209417
 H       -15.7100537526        0.6555234909        0.5745268454
 H       -13.3891664190        6.7226412817       -0.7799353939
 H       -11.8672914988        7.6222082842       -0.6367794639
 H       -12.5234131379        6.7066306900        0.7329244920
 H       -10.5557305125        4.7494369322       -2.3441854492
 H       -11.3076226121        6.4616326042       -2.3589051232
 H       -12.1690330470        5.0910789054       -2.8847958015
 H        -3.9492339099        6.0738133631        0.9936300199
 H        -5.5168925234        5.2220321994        1.0106512170
 H        -4.8606664165        5.8742876281        2.5391344810
 H        -6.0342832397        9.3123665648        2.0805624846
 H        -4.4178785000        8.8809202191        2.2409058681
 H        -5.5791564624        8.0315945180        3.1877607157
 H        -6.0101670047        9.0590184559       -3.7548954511
 H        -4.6257811288       10.0455321432       -4.2946945581
 H        -6.0170167589       10.0257320522       -5.2401032947
 H        -7.0697694097       12.9070497400       -4.7552625414
 H        -5.4894448527       12.2668445722       -5.0873719760
 H        -5.7596677822       13.3128106943       -3.7207930984
 Na      -11.1505836657        1.9500450793        0.7706348694
