117

 C        -8.5584672870       -2.6526020793        2.5607177057
 C       -10.0188643330       -2.2064591642        2.0350115606
 O       -10.1877046808       -2.1293580353        0.8373444463
 C       -11.1677032709       -1.7660188181        2.9475493043
 C       -10.8946188942       -0.2272938825        3.4766338863
 O       -10.7738647458        0.6555912290        2.7047313383
 C       -10.7682930544        0.0983197680        5.0062241915
 C       -10.7416425825        1.5336040395        5.3271682617
 C       -12.1231721176        2.0774833219        5.4812512354
 O       -13.1542477529        1.3584582248        5.4160664471
 C       -12.3249326832        3.5770017445        5.6491989886
 C       -12.0339712262        3.9600698099        4.1612683737
 O       -10.9003938559        3.8923843826        3.7184829396
 C       -13.1635036188        4.4951189495        3.2434715038
 C       -12.8262019384        5.2452307853        1.9478251191
 C       -12.3361510246        6.6103023512        2.3264616963
 O       -12.2348007001        7.0581688086        3.4487954528
 C       -11.7856109805        7.4854294319        1.0131335186
 C       -10.6611661936        6.6687149279        0.4374192721
 O       -10.8703281724        6.0145851881       -0.6061204014
 C        -9.3590970690        6.5811112629        1.1573203362
 C        -9.1272141740        5.0746564502        1.4857803393
 C        -8.2675809553        4.3254403772        0.3276166987
 O        -7.7982452748        4.9533080586       -0.6104154530
 C        -8.0284843421        2.8119553128        0.3385149554
 C        -8.8600911067        2.2544604060       -0.8497443236
 O        -9.9142444765        2.8339294100       -1.0370925787
 C        -8.6626032723        0.8371164020       -1.5942960911
 C        -8.9905110264        0.9417159526       -3.0367191217
 C        -7.8529555344        1.5525458926       -3.9167442495
 O        -6.6794679620        1.6517391030       -3.6508676045
 C        -8.3150170794        2.1356099574       -5.3056120776
 C        -8.5789826526        3.5467158624       -4.8830547918
 O        -9.5739537010        3.8866093341       -4.1984827799
 C        -7.5499102278        4.6779323440       -5.1694927506
 C        -6.7859757044        5.1583195886       -3.8710505016
 C        -7.2429355962        6.5868933140       -3.4694859503
 O        -8.2912057243        6.8680923183       -2.9348816780
 C        -6.2679832873        7.8215231758       -3.6761201838
 C        -6.6259306406        8.2353253367       -5.2732743625
 O        -6.0689273814        7.5992840392       -6.1369639542
 C        -7.5081783828        9.4394546382       -5.5101187881
 C        -6.7280692142        8.9500563262       -2.6651321969
 C        -4.8109725695        7.5859064806       -3.5249264949
 C        -7.0840323131        2.0658336604       -6.3599645875
 C        -9.5945015311        1.4698756645       -5.9028238329
 C        -6.5136605482        2.7013879297        0.1945729442
 C        -8.4355883472        2.2665900337        1.6546470751
 C       -12.8265894455        7.7671559635       -0.0512182666
 C       -11.3034455263        8.8852834796        1.5531405325
 C       -13.7429273633        3.8698829834        6.1484873961
 C       -11.1885464995        4.0830663412        6.5840310745
 C       -12.4954269156       -1.5589215283        2.1691023326
 C       -11.3186803269       -2.8155483320        4.0787681478
 H        -7.8126198796       -2.1329214400        1.9513623525
 H        -8.5057134576       -3.6830402242        2.5304259311
 H        -8.4195832449       -2.3279676792        3.6029684086
 H        -9.7679481415       -0.4114950855        5.3732067415
 H       -11.5450518293       -0.4674955881        5.5449618451
 H       -10.3068069674        1.9952581463        4.4711796394
 H        -9.9927270967        1.9173351745        6.1028405821
 H       -13.8690076807        5.0811967641        3.7626934063
 H       -13.7873266700        3.6537808135        3.0458794216
 H       -13.6071096611        5.2478942500        1.1758620867
 H       -12.0412417868        4.6946474257        1.5109321760
 H        -9.4800633860        7.0755618782        2.1540434465
 H        -8.5107840608        6.8363151042        0.5372632129
 H       -10.0224978465        4.4136145171        1.4964653905
 H        -8.5650172676        5.1711590056        2.3739737751
 H        -9.4773159648        0.1341569350       -1.2119254230
 H        -7.6903158285        0.3916062436       -1.2940828659
 H        -9.9035662078        1.5269610830       -3.3017637036
 H        -9.3106734534       -0.0453002685       -3.4739440727
 H        -8.0524845483        5.5712269290       -5.5157480948
 H        -6.8374503565        4.4020235759       -5.9569093989
 H        -5.7438055911        5.1164596264       -3.9517975710
 H        -7.0783612858        4.4607152353       -3.0404787733
 H        -7.8424470750        9.3281875526       -6.5170626582
 H        -6.9335507456       10.3857987783       -5.3618346626
 H        -8.3573289990        9.5099217618       -4.8179928414
 H        -7.7866236517        9.0617750390       -2.5373462358
 H        -6.2546690253        9.8991844400       -2.8522449060
 H        -6.4483468337        8.6288352885       -1.6946210950
 H        -4.3544996760        6.6271195184       -3.8844010032
 H        -4.5620557420        7.6874639807       -2.4491337478
 H        -4.2003849178        8.4073420693       -3.8977858358
 H        -7.2204947995        2.7380084060       -7.2442631990
 H        -7.0968020445        1.0064596517       -6.5931788362
 H        -6.0341453096        2.2244544446       -5.8865785547
 H        -9.8139889463        1.8139374060       -6.9514458804
 H       -10.4741797036        1.7402544134       -5.3235243258
 H        -9.4246878114        0.3661279079       -5.9712273408
 H        -6.0864782844        3.0440059859        1.0768625538
 H        -6.0946766616        3.3320002445       -0.5714590528
 H        -6.1200696641        1.7385993273       -0.0642182243
 H        -7.7821941962        2.8189749476        2.3884610757
 H        -8.2862657346        1.2091208532        1.7512243797
 H        -9.4979252329        2.3631903457        1.9447724073
 H       -13.7573530170        7.8749103673        0.4675611357
 H       -12.9470691442        6.9403450712       -0.7185368207
 H       -12.5098680612        8.6665053606       -0.5531336016
 H       -10.7101828611        8.7290393469        2.3905330513
 H       -12.2944233974        9.4044253867        1.7944734130
 H       -10.8841857491        9.5162461914        0.8165466847
 H       -13.8582128407        3.3883282319        7.1259198961
 H       -14.5239844399        3.6618318844        5.4571763020
 H       -13.8965671892        4.8925888288        6.4321337278
 H       -11.1655003066        3.3763933739        7.4596436428
 H       -11.4995827696        5.1111369867        6.9957245118
 H       -10.2367134401        4.1605013270        6.1139819433
 H       -12.9125702471       -2.4862980504        1.7441022205
 H       -12.3726264037       -0.7897312256        1.4169021940
 H       -13.2953365514       -1.2761435590        2.8846479199
 H       -12.0018321271       -2.4893958083        4.8695334922
 H       -10.4300708495       -3.0736504109        4.6349991039
 H       -11.7463821606       -3.7177438139        3.7108421410
 Na       -9.6036881261        5.1222820255       -2.1260427237
