117

 C        -8.6992059946       -2.6392675942        2.6511002606
 C       -10.0354541880       -2.0868742348        2.0646920902
 O       -10.1651058787       -2.1122979530        0.8484757400
 C       -11.2449682585       -1.6575933964        2.9955026376
 C       -10.9051325799       -0.2681196588        3.4594228840
 O       -10.8556411337        0.6438068326        2.6581987846
 C       -10.6290135016       -0.0538065392        4.9304381469
 C       -10.7092663822        1.4295234819        5.2075759717
 C       -12.1591801705        2.0089583603        5.3863577712
 O       -13.1272089997        1.3204086141        5.4286841353
 C       -12.2713531596        3.6433329158        5.5891841005
 C       -11.9868399894        4.2815171330        4.1721328150
 O       -10.9053705886        4.2013453821        3.6255280211
 C       -13.2655873729        4.5195182827        3.3848463248
 C       -12.9223933216        5.2308514154        2.0372295385
 C       -12.2633138426        6.5856456871        2.2506580233
 O       -12.1430008461        7.0344605358        3.3631608989
 C       -11.8135265349        7.4785569924        1.0499962464
 C       -10.5747446814        6.6612168237        0.3915544696
 O       -10.8978094624        6.0247911574       -0.5872131465
 C        -9.2608773834        6.5501097879        1.1550304642
 C        -9.0181123976        5.0505988934        1.4125820823
 C        -8.2505768705        4.3636543847        0.2976588717
 O        -7.8095346512        5.0726626472       -0.6264469054
 C        -7.9827514451        2.8653450581        0.4871430603
 C        -9.0096609541        2.2760130370       -0.6782676780
 O       -10.0538150893        2.8198074692       -0.9393575670
 C        -8.6782586634        0.9983649501       -1.4694959334
 C        -8.9932154218        1.0203831716       -2.9944772738
 C        -7.8365034016        1.5703410860       -3.9389137549
 O        -6.7131735627        1.6891420011       -3.4610713950
 C        -8.2785512242        2.1008851740       -5.3131372070
 C        -8.6377762333        3.5745820374       -4.8678679817
 O        -9.5791514835        3.7198318759       -4.1506639073
 C        -7.6210826835        4.7293836665       -5.1313057577
 C        -6.8477499024        5.1639332766       -3.7834636380
 C        -7.2064891278        6.5602911024       -3.4368373515
 O        -8.3258993587        6.7763651956       -2.9757534361
 C        -6.2970013767        7.8102805647       -3.7364798958
 C        -6.5886879989        8.2535914076       -5.3266392014
 O        -6.1175233757        7.5771654131       -6.2133908132
 C        -7.4027358491        9.4972839961       -5.5899527627
 C        -6.6862429940        8.9194592128       -2.8029493962
 C        -4.7998600939        7.4978322608       -3.6372780630
 C        -7.0404726112        1.9982689626       -6.2733163883
 C        -9.4923377170        1.3995170437       -5.8898108253
 C        -6.4406425273        2.6595357446        0.1555793788
 C        -8.5400442767        2.1244014095        1.7146728083
 C       -12.9163194718        7.6269286449       -0.0432961663
 C       -11.3025468348        8.8873672060        1.6185102908
 C       -13.6700728160        4.0241024847        6.1223540410
 C       -11.1819130417        3.9819512790        6.6235335572
 C       -12.4739323350       -1.6232418798        2.0670664805
 C       -11.3734004357       -2.7282783345        4.1084148786
 H        -7.8832626923       -2.4151090941        2.0043043614
 H        -8.9298230460       -3.7120150739        2.7942011788
 H        -8.4936017159       -2.2375198791        3.6723071345
 H        -9.6224996182       -0.5406851559        5.2408321870
 H       -11.3540996413       -0.5812046185        5.5037152924
 H        -9.9932044720        2.0125987807        4.6055270015
 H       -10.2666141200        1.6407990206        6.2365195956
 H       -13.9823013275        5.1981934195        3.8828321010
 H       -13.7833578087        3.5935319478        3.3061523454
 H       -13.7590780094        5.3998923946        1.4165643149
 H       -12.2903510312        4.4855852092        1.4712674734
 H        -9.3406933039        7.0569290322        2.0424315228
 H        -8.4111163471        6.8110298806        0.4294348901
 H        -9.9737100886        4.4292967330        1.4991586747
 H        -8.3643290562        4.9766178744        2.2566436286
 H        -9.3316122213        0.1356493654       -1.0879396276
 H        -7.5716430473        0.7422763959       -1.2150927679
 H        -9.8908382153        1.6707227829       -3.2444653548
 H        -9.3593661482        0.0608839828       -3.3529510617
 H        -8.0770203747        5.5704567874       -5.5375483065
 H        -6.8886053504        4.4377689536       -5.8747243970
 H        -5.7884587159        4.9537306090       -3.8526486560
 H        -7.2642269295        4.5809878459       -2.9797427497
 H        -7.8124916144        9.3316900975       -6.6557373518
 H        -6.6690408171       10.3332307241       -5.6282366458
 H        -8.1066506074        9.7996484493       -4.8540678570
 H        -7.6890973278        9.1127340507       -2.5966086850
 H        -6.1565839919        9.8194967831       -3.0792353150
 H        -6.2941880369        8.6345663786       -1.8231228501
 H        -4.5381216568        6.5756530143       -4.1054848580
 H        -4.5015415137        7.4282833288       -2.5786453479
 H        -4.1079579198        8.2606322248       -3.9899157375
 H        -7.1847557290        2.5918482230       -7.1929013769
 H        -6.8287654512        0.9162229555       -6.4439747920
 H        -6.1712513315        2.3678466493       -5.7516649787
 H       -10.0034552181        1.9688135773       -6.6582391718
 H       -10.2016470161        1.1798988516       -5.1240530834
 H        -9.1329957192        0.4938179820       -6.3295898563
 H        -5.8849612169        2.9840360056        1.0095676574
 H        -5.9881778569        3.1632365004       -0.7173418404
 H        -6.2183134223        1.6320700760        0.0153078329
 H        -7.8331281426        2.2757502236        2.5716520254
 H        -8.7047175806        1.0723598442        1.5547892813
 H        -9.5062798068        2.4952287984        2.0366407320
 H       -13.7936489580        8.1037160439        0.3566192338
 H       -13.2156784306        6.6465352957       -0.4385531784
 H       -12.3862185642        8.2393321467       -0.7551094712
 H       -10.6494390632        8.6221709444        2.4966756666
 H       -12.1711630751        9.4783413071        1.8802415779
 H       -10.8021401069        9.4876151554        0.8768169236
 H       -13.7130451015        3.6542913955        7.1690469858
 H       -14.4819138489        3.5487621112        5.5227372531
 H       -13.9489059406        5.0813108043        6.3031358371
 H       -11.3819072551        3.3796427817        7.5151435832
 H       -11.2268511839        5.0129807343        6.8819777947
 H       -10.1684132788        3.7794719372        6.2406136911
 H       -12.4919469293       -2.5610165549        1.5643291714
 H       -12.4028228426       -0.7783924185        1.3845932351
 H       -13.4427765347       -1.6304089671        2.5542327115
 H       -12.1769478026       -2.5289442224        4.7444178835
 H       -10.5278053444       -2.8063876953        4.7537015643
 H       -11.5551565951       -3.7187330067        3.7074982047
 Na       -9.5765521483        5.0837791370       -2.2377079786
