117

 C        -8.8501806180       -2.7052406106        2.9055311741
 C       -10.0422858190       -2.0959903210        2.1395167895
 O        -9.9059910230       -1.9000165868        0.9202711748
 C       -11.3676793522       -1.6916170546        2.8783532351
 C       -11.1723557464       -0.2437017771        3.3467230546
 O       -11.1984255162        0.6376339331        2.5366291109
 C       -10.7619761083       -0.0695376868        4.8144151991
 C       -10.6217762532        1.3652222824        5.2124629978
 C       -11.9814363654        2.1130655568        5.2975230808
 O       -12.9602178394        1.4119058579        5.2459019470
 C       -12.1238167546        3.6493790859        5.6394333834
 C       -12.0646015021        4.3957737727        4.3397217112
 O       -10.9851365534        4.6756107811        3.8688327804
 C       -13.3497594918        4.4909754668        3.5029882092
 C       -13.1400619850        5.3988665996        2.1830730599
 C       -12.2918339090        6.6731497916        2.3469177832
 O       -12.0292121679        7.1401768741        3.4129621122
 C       -11.8349441161        7.4556970772        0.9932343091
 C       -10.7159914903        6.6386489966        0.3765026756
 O       -10.8692487863        6.1481492928       -0.7438719555
 C        -9.2806806712        6.6048617059        1.0592815797
 C        -8.7334077583        5.2323813805        1.5944721296
 C        -8.0255691414        4.4148872520        0.4390961401
 O        -7.6671966143        4.9956032075       -0.5763688267
 C        -8.0289408485        2.7640148577        0.4426128831
 C        -9.0364219683        2.2132322739       -0.6808370707
 O        -9.8793535925        3.0011054565       -1.0592178078
 C        -8.8632258852        0.7426020012       -1.2977321448
 C        -9.0744171145        0.8445900754       -2.8585419355
 C        -7.8556046214        1.4952737036       -3.6553925727
 O        -6.7731415331        1.6258836971       -3.1423694942
 C        -8.1612522634        2.0753525952       -5.1149566085
 C        -8.6453618695        3.5126752379       -4.7776258828
 O        -9.7474023188        3.5838603728       -4.2093635242
 C        -7.8496194787        4.7147765661       -5.1933501011
 C        -6.9489916429        5.2351475018       -4.0014138777
 C        -7.3099318204        6.6758709615       -3.5833634277
 O        -8.3581016042        6.9152452642       -3.0618870049
 C        -6.2592114709        7.8234017167       -3.9792975131
 C        -6.5239208524        8.1453040058       -5.4536433967
 O        -6.4175360753        7.2816718701       -6.3161654316
 C        -7.0943253375        9.5224288195       -5.8471136128
 C        -6.3467023751        8.9591121029       -2.9622009560
 C        -4.7674702961        7.2966377417       -3.8408451358
 C        -6.7995412788        2.0016230914       -5.8646178455
 C        -9.3165419036        1.2705360964       -5.8104532331
 C        -6.5339231233        2.4762413967        0.1421739442
 C        -8.4513834864        2.2556540649        1.9563038846
 C       -12.9959287923        7.5678239930       -0.0214214069
 C       -11.3411861820        8.9001861513        1.3476953252
 C       -13.4795280595        3.7993222485        6.3772133864
 C       -10.9181105207        4.2617712559        6.3971510540
 C       -12.5698841105       -1.7525819894        1.9061350849
 C       -11.6816723350       -2.7615357790        3.9228738163
 H        -8.2719672909       -3.0554566946        2.0933448779
 H        -9.1306021068       -3.4324436156        3.5969909418
 H        -8.2853568225       -1.9212142958        3.4459219782
 H        -9.7229167358       -0.6285071773        4.9594177142
 H       -11.4411870779       -0.5276617464        5.4965069760
 H        -9.9204548660        1.8874128378        4.6735551915
 H       -10.1377005606        1.3630754023        6.2241977381
 H       -14.2494611869        4.8679122127        3.9455998396
 H       -13.5406121840        3.5034916144        3.1254443234
 H       -14.1458782908        5.6377198128        1.7937675576
 H       -12.7259233000        4.7273452142        1.4550566517
 H        -9.3427810665        7.1953065566        1.9531777597
 H        -8.6186174616        7.0725840140        0.2921789355
 H        -9.5795537961        4.7453854567        2.1557070686
 H        -7.9087700120        5.3326963537        2.2656052544
 H        -9.6523125231        0.1459008956       -0.8436834958
 H        -7.8754249329        0.3244051855       -1.0160122912
 H        -9.9831998349        1.4397151313       -3.0717241065
 H        -9.2767472586       -0.1067013226       -3.4104175876
 H        -8.4904331268        5.5203942246       -5.5981751084
 H        -7.1446874726        4.6005010658       -6.0752456399
 H        -5.9842420757        5.1225952881       -4.4113277703
 H        -7.1359270610        4.5147212480       -3.1362510050
 H        -7.2727141005        9.5786008059       -6.9281366331
 H        -6.5184345378       10.3832740094       -5.5320959093
 H        -7.9515309343        9.6074014014       -5.2733260641
 H        -7.3823408031        9.3083482002       -2.8978136630
 H        -5.7591181367        9.8697231785       -3.2322559573
 H        -6.0531101485        8.6833777169       -1.9361889849
 H        -4.3269457518        6.9220197029       -4.7788037682
 H        -4.6181991159        6.4860201684       -3.1067118695
 H        -4.1084821128        8.1204969404       -3.5745762991
 H        -6.8651326202        2.4123637552       -6.8790067485
 H        -6.5971080237        0.9404149289       -5.9750597028
 H        -6.0569243808        2.5280428046       -5.2379048799
 H        -9.3875195329        1.8030880473       -6.8027207635
 H       -10.2514084520        1.3594941448       -5.2655209605
 H        -9.1140987854        0.1754053259       -5.9603005103
 H        -5.8416866187        3.2545975675        0.4451882600
 H        -6.4510008092        2.4320655573       -0.9875778503
 H        -6.1243368207        1.5170080624        0.5148574014
 H        -7.9137192105        2.8072415503        2.7743069494
 H        -8.1010770246        1.2502916554        2.0623533179
 H        -9.5158591861        2.2914206430        2.1944484449
 H       -13.7002679523        8.2065669928        0.4959170925
 H       -13.4469503040        6.6181645738       -0.2684435820
 H       -12.5730510268        8.1270160920       -0.8600935971
 H       -10.5680898315        8.8096522881        2.0961917498
 H       -12.1871988079        9.5178145004        1.7639913741
 H       -10.9649563346        9.3692762299        0.4889434600
 H       -13.6354323317        3.2618342101        7.3185525943
 H       -14.2317586891        3.3788354890        5.7556780918
 H       -13.6888697948        4.8000095334        6.6068275949
 H       -10.7188171710        3.7441276033        7.3581862560
 H       -11.0754210101        5.3511846812        6.5234682684
 H       -10.0921650786        4.1445061513        5.7275678149
 H       -12.7992825150       -2.7658990752        1.5958312256
 H       -12.4936094636       -1.0082683960        1.1271570305
 H       -13.4912463089       -1.4662326126        2.4600430795
 H       -12.5602489530       -2.5142290094        4.5541457416
 H       -10.7985342141       -2.9993106281        4.5731576135
 H       -11.8822842977       -3.7516659955        3.4501687431
 Na       -9.6029766493        4.9224568261       -2.2172601130
