117

 C        -9.2327893764       -2.9569811782        3.0935791573
 C        -9.9673614819       -1.9656540872        2.2060756353
 O        -9.5616733600       -1.4045735209        1.2272664380
 C       -11.4934025345       -1.6880297655        2.5936235121
 C       -11.4370661515       -0.1723939479        3.1694828001
 O       -11.6656706404        0.7454388369        2.3967628630
 C       -10.7462505952       -0.0488730885        4.6129190047
 C       -10.6539364528        1.3474725779        5.1990145519
 C       -12.0102807093        2.1150343935        5.2808504766
 O       -13.1122392009        1.7061278597        4.9559300975
 C       -11.8573442821        3.6623284813        5.7248150647
 C       -11.7895397791        4.4118198637        4.3427383588
 O       -10.7488316570        4.4225559401        3.6608451707
 C       -13.0207448237        5.0565151332        3.8504480854
 C       -12.9528253165        5.5556374075        2.4064532075
 C       -12.3945936703        6.9452971069        2.3856325327
 O       -12.2802067932        7.6213007304        3.4015425726
 C       -11.9345080172        7.4751814275        0.9476474030
 C       -10.8606123809        6.6040416687        0.2954128962
 O       -11.1371695073        6.0425501104       -0.7330568485
 C        -9.4687371033        6.5101204733        0.9239955465
 C        -9.0078284345        5.1287428576        1.4268754805
 C        -8.0992499137        4.4557638620        0.4356322941
 O        -7.5636580518        5.0633667586       -0.4935429466
 C        -7.9738596187        2.8813393443        0.4845273490
 C        -8.9893853598        2.2139172380       -0.7172334666
 O        -9.5900388784        2.9836206642       -1.4351954994
 C        -9.1613372101        0.7455331077       -0.9694606403
 C        -9.0852119933        0.4723608105       -2.5165581673
 C        -7.9640077364        1.2970585074       -3.0585842836
 O        -6.9148967917        1.6392111000       -2.4946412903
 C        -8.1461270570        1.8817536241       -4.5912930264
 C        -8.7906214435        3.2844208824       -4.3602867249
 O        -9.8919210722        3.3387326562       -3.8436970620
 C        -8.2392555138        4.6030775629       -4.9398983400
 C        -6.8680305268        5.0665655919       -4.3021318379
 C        -7.0629323865        6.5157355228       -3.8555905734
 O        -8.0440429205        6.7520092414       -3.1074611524
 C        -6.1404250425        7.7103052952       -4.2710919349
 C        -6.4495390443        7.9901878929       -5.8632154307
 O        -6.7038216214        7.0241593774       -6.5275962887
 C        -6.4687286663        9.4655129976       -6.3629099155
 C        -6.4353335645        8.9308140691       -3.3835999968
 C        -4.6292132904        7.3611614624       -4.2910976670
 C        -6.6706742435        1.9387220065       -5.2570503057
 C        -9.0819242389        1.0467666143       -5.4766098955
 C        -6.5129024736        2.5514746948        0.2371439554
 C        -8.5399062096        2.1735769987        1.6160594863
 C       -13.2366041327        7.5228564143       -0.0232268763
 C       -11.4300773227        8.8927197858        1.2722324909
 C       -13.0118233381        4.0722278582        6.6395901210
 C       -10.5521344198        3.9598089314        6.4839912153
 C       -12.4847283595       -1.6066549214        1.3937223032
 C       -11.9351530445       -2.6241086545        3.7354460356
 H        -8.2506420808       -3.0439850747        2.6741728400
 H        -9.7398044754       -3.9301746561        2.9404850134
 H        -9.2537601393       -2.6482390913        4.0927665801
 H        -9.6851859784       -0.4275966788        4.5064927085
 H       -11.3238239781       -0.6905332879        5.3562597054
 H        -9.9585555735        1.8853901029        4.5531270655
 H       -10.1769502166        1.2630002374        6.1616067242
 H       -13.0300194650        6.0131084995        4.3363970826
 H       -13.8245212945        4.4307088047        3.9701628824
 H       -13.9172719695        5.4977706135        2.0125768698
 H       -12.2849517630        4.8701468956        1.8075031421
 H        -9.3806140520        7.1098405808        1.7990368934
 H        -8.6856549597        7.0117071619        0.2716612891
 H        -9.8619798789        4.4678755015        1.6363856216
 H        -8.5918667053        5.1937278927        2.4066774411
 H       -10.1182189322        0.2915570165       -0.7139244964
 H        -8.2743462067        0.2083221785       -0.6066461801
 H       -10.0959578508        0.7841795941       -2.8731700574
 H        -8.9337702282       -0.5911743941       -2.6969498061
 H        -8.9404554139        5.4303322164       -4.6659230357
 H        -8.1614104445        4.5625224290       -6.0514050395
 H        -6.0130406987        4.8953401475       -5.0354658196
 H        -6.7229997429        4.4456045799       -3.4200271226
 H        -6.4601797769        9.5284173803       -7.4253212950
 H        -5.5977996256        9.9639060954       -6.0305961560
 H        -7.3538348986        9.9625657801       -5.9526980453
 H        -7.3898020779        9.4634400920       -3.4796708525
 H        -5.6932887338        9.7209403755       -3.5434496571
 H        -6.2050413180        8.6874425405       -2.3242042313
 H        -4.4475725585        6.5703669659       -4.9853363650
 H        -4.2748185883        7.0120965505       -3.3326775214
 H        -4.0237701808        8.1997308966       -4.6302922640
 H        -6.7255931543        2.4178409478       -6.2251140759
 H        -6.3110546284        0.9018182247       -5.3568894078
 H        -6.0472469815        2.4641585667       -4.5741755448
 H        -9.2442529560        1.5575372292       -6.4116882898
 H       -10.0668410638        0.9608023329       -4.9507130619
 H        -8.7349740963        0.0267345405       -5.6436037825
 H        -5.9989646784        2.7912819359        1.2325977556
 H        -6.0212724898        3.1328217247       -0.5398443991
 H        -6.3788502981        1.4580603214        0.1620368706
 H        -8.0481262397        2.4666014385        2.5360769325
 H        -8.5355642960        1.0767493392        1.6001134348
 H        -9.5302045201        2.5692814889        1.7776576629
 H       -13.8453288861        8.3566223358        0.3277477955
 H       -13.6836089894        6.5071613982       -0.0598670116
 H       -12.8636846817        7.7295267943       -1.0267021629
 H       -10.5953972996        9.0360130599        1.9797941280
 H       -12.2312369777        9.3734355797        1.6921698545
 H       -11.1423462758        9.3456079154        0.3247767601
 H       -12.7929994113        3.7148206189        7.6272586944
 H       -13.9622513149        3.5920401471        6.4121078502
 H       -13.1201731192        5.1385605187        6.6148044247
 H       -10.5514388093        3.3480219941        7.3666643843
 H       -10.6037289863        4.9643795307        6.7862747780
 H        -9.6400704583        3.7892040090        5.8581126278
 H       -12.4367580492       -2.4989356935        0.7810976079
 H       -12.2505457439       -0.7835908979        0.7013138150
 H       -13.4657675492       -1.4007228771        1.7919930698
 H       -12.9101042106       -2.2962909906        4.1309859621
 H       -11.1949728670       -2.6332540906        4.5652504866
 H       -12.1204330596       -3.6686680025        3.3266484499
 Na       -9.6158397298        5.1502602583       -2.2241000910
