117

 C        -9.2670594501       -3.0334324453        2.9843349898
 C       -10.0178524203       -1.9525892839        2.1383004700
 O        -9.4254570630       -1.3288599780        1.3046182476
 C       -11.5333960844       -1.6360933337        2.5863629483
 C       -11.3717468991       -0.1824178753        3.1216889433
 O       -11.6588556543        0.7729046594        2.4621720399
 C       -10.9033930795       -0.0640583312        4.5142699241
 C       -10.7269965988        1.3119639723        5.1427382679
 C       -11.9216057479        2.1463932614        5.2350413795
 O       -13.0740456356        1.7039226411        5.1165364368
 C       -11.7491791528        3.7191925643        5.8049254689
 C       -11.7413609133        4.4346557316        4.4055341925
 O       -10.7116118945        4.3256532607        3.7306880054
 C       -13.1037987154        5.0293165881        3.8529319530
 C       -12.9774699577        5.6230819721        2.4394384639
 C       -12.3878194969        7.0157036758        2.3576547655
 O       -12.2403884066        7.7472178000        3.2811229645
 C       -11.9966047747        7.6358564324        0.9075744898
 C       -10.9384457970        6.5996335525        0.2660986268
 O       -11.2140557363        6.0462179711       -0.8129655003
 C        -9.5711118658        6.5113639387        0.9777444331
 C        -9.1028398750        5.1423917670        1.4479518261
 C        -8.2059060398        4.4402936727        0.4301411410
 O        -7.5564688300        5.0895675120       -0.3755932242
 C        -8.0469323794        2.8157368756        0.5095237494
 C        -8.8937921427        2.2838340713       -0.6851970042
 O        -9.6866208164        2.9882171565       -1.3339504244
 C        -9.1076148415        0.7863880152       -0.8506926287
 C        -9.0307201738        0.4688281151       -2.4634057477
 C        -7.9347157313        1.2804701570       -3.0861202267
 O        -7.0108530521        1.5943318615       -2.3685825355
 C        -8.0960398740        1.8379431915       -4.5809847479
 C        -8.7464354766        3.2179695833       -4.4133851174
 O        -9.8551660615        3.2568508391       -3.9169275669
 C        -8.1718912057        4.5575560493       -4.8776512212
 C        -6.8206067443        5.1345823462       -4.3058272285
 C        -7.0730824497        6.5088522674       -3.8414074580
 O        -8.0133805752        6.7908037681       -3.0903371007
 C        -6.1377424486        7.6881619415       -4.3962538456
 C        -6.4578220438        7.9687078594       -5.8658126422
 O        -6.6963850478        7.0682218414       -6.6385227601
 C        -6.3368007711        9.3701983757       -6.4473706427
 C        -6.4026841980        8.9920063270       -3.5529428168
 C        -4.6586548902        7.2653462031       -4.3860173023
 C        -6.7418701804        1.8227297513       -5.3117828199
 C        -9.0477755235        1.0081148783       -5.4764139511
 C        -6.5313816195        2.5076964215        0.2540627932
 C        -8.5147813601        2.1352311998        1.8599059196
 C       -13.2422984315        7.6289824014        0.0349075135
 C       -11.3966250392        8.9967713174        1.0704489689
 C       -12.9116832519        4.0755317955        6.7076140509
 C       -10.4473640111        3.9215235008        6.5724873843
 C       -12.3887609241       -1.6354233964        1.3329954669
 C       -12.1179472529       -2.5648103633        3.6674164028
 H        -8.2102073260       -2.9306739266        2.6924127416
 H        -9.5718205279       -3.9987189029        2.6673560091
 H        -9.4166113241       -2.8459623441        4.0030107117
 H        -9.9350919860       -0.5059932889        4.5395704150
 H       -11.6061796204       -0.6627569632        5.2458544428
 H        -9.8890337969        1.8684679541        4.5469945461
 H       -10.3836902129        1.0810290028        6.1270737814
 H       -13.4864116210        5.7797185385        4.4468310360
 H       -13.7134958409        4.1423003392        3.6677731127
 H       -13.9319941658        5.4978257515        1.9552706007
 H       -12.3008474572        4.9497628221        1.9447720224
 H        -9.4313749840        7.2383320653        1.8675256260
 H        -8.8993800246        6.9856716356        0.2874408251
 H        -9.9486885525        4.6003396484        1.7419615242
 H        -8.5259523967        5.0858706958        2.4124707987
 H       -10.1981438026        0.4894703437       -0.6383126033
 H        -8.3349885707        0.0701836361       -0.4803975803
 H       -10.0737037258        0.6451649397       -2.7492773520
 H        -8.7912842245       -0.6216948563       -2.5699734733
 H        -8.9206606538        5.3302763344       -4.7077510741
 H        -7.9733231941        4.5020873023       -5.8976401315
 H        -6.0737789901        5.0778070244       -5.1259764778
 H        -6.4523926147        4.5564044139       -3.4856283258
 H        -6.5218494628        9.3395677135       -7.4719585677
 H        -5.2811241564        9.6119880518       -6.3588811829
 H        -6.9776171477       10.1709121040       -5.9956831824
 H        -7.4836959007        9.3033469116       -3.6030128027
 H        -5.9060785000        9.8664412394       -3.9544170935
 H        -6.0877836564        8.9859248332       -2.5256067237
 H        -4.2956858161        6.4986552003       -5.1274926308
 H        -4.4855309538        6.8962095622       -3.3735688551
 H        -4.0154840177        8.1495196499       -4.5083085321
 H        -7.0510520530        2.4806994633       -6.1560005269
 H        -6.5097549400        0.8247235328       -5.6922883548
 H        -5.8652698986        2.2859162081       -4.7052135951
 H        -9.6220085886        1.6436519011       -6.1887980887
 H        -9.8001827211        0.5564010816       -4.7732892303
 H        -8.5552877866        0.1496154018       -6.0220110739
 H        -5.9584002347        2.8652989407        1.1305781398
 H        -6.1705805115        3.0121315358       -0.6025008339
 H        -6.3720231820        1.4310575085        0.2308081883
 H        -8.1774207168        2.7995928471        2.6443545224
 H        -8.0186091968        1.1399927867        2.0224840077
 H        -9.5966955772        2.0081157558        2.0756956027
 H       -13.8942292561        8.4718126301        0.2432185026
 H       -13.6132861311        6.6401726818        0.0520105023
 H       -12.8196964760        7.7232329448       -0.9423720303
 H       -10.5016081978        8.9936487730        1.5855431016
 H       -12.0736677985        9.6590419067        1.6927645080
 H       -11.1789685756        9.4272157543        0.0945688442
 H       -12.7069747395        3.6509877535        7.6826826281
 H       -13.8098562161        3.5936309457        6.2880940997
 H       -13.1190872633        5.1276877587        6.7581215858
 H       -10.4986689282        3.3586156861        7.5256764204
 H       -10.3965137712        5.0328304909        6.8334732230
 H        -9.6079541993        3.6480017430        5.9542232640
 H       -12.0916739831       -2.5415928033        0.7663699310
 H       -12.1076852213       -0.8430461487        0.6388833617
 H       -13.4506490483       -1.5328121403        1.5392129064
 H       -13.0942663349       -2.0618475015        3.9684859046
 H       -11.4846695617       -2.6235968737        4.5672813740
 H       -12.4275732987       -3.5381222668        3.2732759715
 Na       -9.6739272276        5.0954999685       -2.1741288695
