117

 C        -9.6013787714       -3.3251543102        2.7433279130
 C       -10.0296259495       -1.9358622864        2.1716764660
 O        -9.2639565685       -1.1965587143        1.6498240256
 C       -11.5272755444       -1.5653946189        2.4406802474
 C       -11.4412604675       -0.1620572583        3.1035372791
 O       -11.5147119067        0.8117477225        2.3935731312
 C       -11.2173347306       -0.0990076515        4.6236637404
 C       -10.7894702725        1.2574699595        5.0235688105
 C       -11.9705806773        2.1592032011        5.3905696776
 O       -13.0937123947        1.6983576423        5.6526890326
 C       -11.7067045643        3.7379895664        5.8396704393
 C       -11.6544589648        4.5445134429        4.5105270101
 O       -10.6269459141        4.4230531556        3.8227135372
 C       -12.9113260179        5.2256597100        3.9170609944
 C       -12.8001130657        5.7323518325        2.4781404128
 C       -12.2841831559        7.1839712175        2.3690931436
 O       -12.1637458919        7.9478796636        3.2826720669
 C       -12.0800185049        7.7059090715        0.8634643650
 C       -11.0787959023        6.7589804703        0.1920664489
 O       -11.2105404012        6.1629390599       -0.8603593912
 C        -9.7074489951        6.5118026075        0.9185253604
 C        -9.4994248563        5.0616904868        1.2831082518
 C        -8.4235799237        4.4433715835        0.4913481202
 O        -7.7785126778        4.9819346585       -0.4082955465
 C        -8.0640418874        2.9019913958        0.7250394392
 C        -9.0267943169        2.1766241484       -0.3779025710
 O        -9.9275683156        2.8572593815       -0.8984461043
 C        -8.8095570266        0.7055847336       -0.7477704868
 C        -9.0141147265        0.6579684561       -2.3531705288
 C        -7.9008862796        1.3325900177       -3.0811864977
 O        -6.8056135487        1.5156667605       -2.6172209794
 C        -8.1072716307        1.7423914968       -4.6461759836
 C        -8.7363936398        3.2449148455       -4.5296625355
 O        -9.6147524748        3.4329630061       -3.7127813657
 C        -8.0543031556        4.3787299171       -5.3135685754
 C        -6.9854607805        4.9740587293       -4.2660519375
 C        -7.0817839932        6.4330558782       -3.9246864753
 O        -8.0394098159        6.8176336139       -3.2072373634
 C        -6.1938060983        7.5788267644       -4.5201733022
 C        -6.4475313898        7.7944963707       -6.0712399523
 O        -6.8942547428        6.8681493758       -6.6978044540
 C        -6.0236699992        9.0876685782       -6.8010531461
 C        -6.4179856954        8.8721023860       -3.7306587478
 C        -4.7160346866        7.1314731709       -4.3760079600
 C        -6.7370653498        1.6487171753       -5.2971667974
 C        -9.0750723856        0.7391949834       -5.3801233151
 C        -6.5928839539        2.6062109120        0.4779768246
 C        -8.4785184138        2.3530925054        2.1666903994
 C       -13.3846304998        7.6588327503        0.0691540541
 C       -11.4598973871        9.0752345790        0.8732785300
 C       -12.7862592053        4.1824361925        6.8439592637
 C       -10.3689960917        4.0233050065        6.5552577046
 C       -12.0745274564       -1.3773347495        1.0161125236
 C       -12.3166858743       -2.6312163808        3.2657490888
 H        -8.4899085714       -3.4727666409        2.6003626103
 H       -10.1292150897       -4.0908689890        2.1074249404
 H        -9.8509521969       -3.3959613086        3.7659056985
 H       -10.4784338932       -0.8558208370        4.8915940708
 H       -12.1576315307       -0.3234629576        5.2401809122
 H       -10.2513796268        1.6881668591        4.1883743400
 H       -10.1969121360        1.1724642314        5.8773049827
 H       -13.1121615970        6.1306390843        4.5073582657
 H       -13.6957521284        4.4829965313        3.9054621476
 H       -13.7443624936        5.6095370363        1.9945873866
 H       -12.1132246052        4.9766602150        1.9282844792
 H        -9.5564446396        7.0900472590        1.8300157120
 H        -8.8247151625        6.8631960096        0.3690553131
 H       -10.3888442153        4.4203839047        1.1739237909
 H        -9.2720336680        4.7994287451        2.3200319194
 H        -9.4703412854        0.1051220058       -0.1792684979
 H        -7.8147279575        0.3238654287       -0.7353261821
 H        -9.9224386216        1.2635476379       -2.4185482450
 H        -9.1095148649       -0.2961319327       -2.8239912994
 H        -8.7559103237        5.2468937353       -5.5440054425
 H        -7.4716074999        4.0304144442       -6.1909095849
 H        -5.9512256768        4.7367855590       -4.7184011323
 H        -6.9720074157        4.3948535911       -3.3470398510
 H        -6.2493827529        8.9797849472       -7.8119043822
 H        -4.9517147500        9.2079995937       -6.6952074890
 H        -6.5797047438       10.0261137789       -6.5076024307
 H        -7.4114568284        9.3101945608       -3.9301611156
 H        -5.6873317558        9.6283038069       -3.9587413482
 H        -6.4836321717        8.7641757757       -2.6445523915
 H        -4.4886037146        6.2814904074       -4.9894767403
 H        -4.4292111891        6.9608804178       -3.3600495782
 H        -4.1042755462        7.9608673171       -4.7083957031
 H        -6.8003022704        1.7581729106       -6.3280184073
 H        -6.4324488463        0.6976762330       -5.0044326310
 H        -6.0730072517        2.3387736848       -4.8331840175
 H        -9.3831450500        1.1454219218       -6.2868866441
 H        -9.9847200431        0.5802550206       -4.8060195661
 H        -8.5662333494       -0.1454691982       -5.6498803976
 H        -5.9031711713        3.1029482176        1.2493801712
 H        -6.3633026210        2.9393587660       -0.5239715830
 H        -6.5502368506        1.4901039910        0.4868115030
 H        -8.0900105899        2.9073040373        2.9803431166
 H        -8.3489356373        1.2628550332        2.2389004281
 H        -9.5594626609        2.3733405544        2.2635816064
 H       -14.1287159317        8.1602874337        0.7179058073
 H       -13.5309908447        6.5663567164        0.0648547442
 H       -13.3122489520        8.0809271739       -0.9368821727
 H       -10.5625219846        9.1441813185        1.4574394729
 H       -12.2107322896        9.7624433347        1.2875012256
 H       -11.2721383457        9.4595678283       -0.1598275198
 H       -12.6617106411        3.6229031458        7.7544855937
 H       -13.7595368185        4.2027852218        6.3315945004
 H       -12.6623313529        5.2530299035        7.1174575746
 H       -10.2210603616        3.3263041680        7.3320128059
 H       -10.3995258391        4.9928568907        6.9917639160
 H        -9.5874498355        3.9839996345        5.8111305012
 H       -12.1247036985       -2.2899524874        0.4266756673
 H       -11.3484197478       -0.7842875482        0.4743021474
 H       -13.0049943082       -0.8542117943        1.0060096025
 H       -13.3596233256       -2.3926532263        3.3704344004
 H       -11.8773380027       -2.6126785980        4.2276814660
 H       -12.2190360112       -3.5966762095        2.8042082685
 Na       -9.3682270925        5.1502779827       -2.1235557141
