117

 C        -9.6542852859       -3.4561397985        2.6963283931
 C        -9.9805873796       -2.0153435025        2.2478860140
 O        -9.1658468578       -1.2015874430        1.8003540583
 C       -11.4520087504       -1.5781883934        2.3107143504
 C       -11.4614423992       -0.1922921727        3.0246828489
 O       -11.4757997009        0.8454141602        2.4004793325
 C       -11.2587584615       -0.0724828701        4.5577169579
 C       -10.8605647640        1.3432830126        5.1455777562
 C       -12.0445635291        2.2469599857        5.6125717622
 O       -13.1226435176        1.7897738773        5.7968879966
 C       -11.7292607421        3.7722971096        5.8274739608
 C       -11.6555831033        4.5219573955        4.4773031603
 O       -10.6564394740        4.5133754806        3.8172669731
 C       -12.8175308537        5.3956280657        4.0598553945
 C       -12.7480743502        5.7259540212        2.5882912754
 C       -12.2614353137        7.1585157517        2.3131440582
 O       -12.1381544630        7.9327937739        3.2417187666
 C       -12.0709250542        7.6281516000        0.8386327913
 C       -11.0175620236        6.7758764366        0.1479849745
 O       -11.2326053365        6.2807404091       -0.9600151913
 C        -9.6772219241        6.5484119080        0.8646575661
 C        -9.4844355022        5.0591084429        1.2342466690
 C        -8.3958476265        4.3592355025        0.4402373459
 O        -7.8060520459        4.9622477866       -0.4296046810
 C        -8.1002085530        2.8513171513        0.6553786422
 C        -9.0173893952        2.1803011578       -0.3114043243
 O        -9.9575240517        2.8358381285       -0.7580977684
 C        -8.7427828679        0.8139306515       -0.7649526403
 C        -9.0513121379        0.7162490400       -2.3470355275
 C        -7.8490180189        1.2850773222       -3.1327423710
 O        -6.7773934528        1.4836929182       -2.6002006292
 C        -8.0328709604        1.7464526038       -4.6128522961
 C        -8.6560530642        3.2229154421       -4.5150024045
 O        -9.5039090382        3.4901609708       -3.6964821096
 C        -7.9957199188        4.3286367041       -5.2689311679
 C        -6.8982576354        4.9726800482       -4.3609475067
 C        -7.1932405052        6.4439922745       -4.0241744405
 O        -8.1366237629        6.7589801370       -3.3193501126
 C        -6.1412534224        7.4878051574       -4.5378453333
 C        -6.4256673958        7.6148787816       -6.1090223462
 O        -7.0307476427        6.7389097702       -6.6925986719
 C        -5.9737581654        8.8971512517       -6.7195212301
 C        -6.5117976337        8.8460125797       -3.7911097121
 C        -4.6683434770        7.0642537700       -4.4153416503
 C        -6.7513845250        1.6563678476       -5.4383484399
 C        -9.1119088831        0.8308038503       -5.2939005033
 C        -6.5559117845        2.6434959704        0.5861119119
 C        -8.5164267927        2.4268086991        2.0728283330
 C       -13.4494573166        7.5312378089        0.0939999039
 C       -11.5287531321        9.1250455585        0.9739537208
 C       -12.8685080030        4.2641246454        6.7940454282
 C       -10.3221687371        3.9189567395        6.5155884988
 C       -12.1524960079       -1.2400514255        0.9414149239
 C       -12.3320916157       -2.5948711772        3.0805890533
 H        -8.5918177185       -3.6057482855        2.4812340346
 H       -10.2296907961       -4.1002293585        2.0823799978
 H        -9.8169156120       -3.5884749352        3.7694835088
 H       -10.4915389067       -0.8086973477        4.8479877946
 H       -12.2469856626       -0.4185026105        5.0940745686
 H       -10.3953916445        1.8070906111        4.2331875032
 H       -10.1692273597        1.1591309830        5.9090591656
 H       -12.7451026878        6.2900585082        4.5759254893
 H       -13.7583704694        4.8751043361        4.2066710546
 H       -13.7369051550        5.5226643252        2.1426277865
 H       -12.1300842178        4.9687984801        2.1447849003
 H        -9.6755851714        7.1278432366        1.8867901636
 H        -8.7739242726        6.9236267768        0.4508463410
 H       -10.3319380949        4.4528199217        1.1889075090
 H        -9.2615018827        4.9409250468        2.3207896611
 H        -9.3494278392        0.0533400765       -0.1715015079
 H        -7.6952948823        0.4752086566       -0.8048120203
 H       -10.0067367036        1.2126599809       -2.3943782701
 H        -9.0829221631       -0.3561587518       -2.6688562456
 H        -8.7719655794        5.1510155115       -5.2773931246
 H        -7.6303558712        4.0610392123       -6.2565045133
 H        -5.8655190493        4.7506425531       -4.7104579524
 H        -6.9235091553        4.4460609971       -3.3822286018
 H        -6.0298048851        8.8927829359       -7.7907932624
 H        -4.9756195214        9.0438768209       -6.3806024268
 H        -6.6023480840        9.7172155617       -6.4443737185
 H        -7.5004145133        9.2376578585       -4.1446141247
 H        -5.7746797943        9.6399138588       -3.9548901057
 H        -6.7432928793        8.7915925983       -2.7362919324
 H        -4.4885458621        6.0980791180       -4.8813571897
 H        -4.4085096188        7.0437239806       -3.3934079531
 H        -4.0168387324        7.7862691731       -4.8420708309
 H        -7.0681841930        1.5840168535       -6.4440371191
 H        -6.3091213939        0.7653149084       -5.1210256310
 H        -6.0446678335        2.4742036968       -5.2819874287
 H        -9.0937389935        0.8017265431       -6.3663358075
 H       -10.0838899434        1.0899695228       -4.9565196137
 H        -8.8450213689       -0.1828180550       -5.0296295619
 H        -6.1161293007        3.3652000177        1.2934931428
 H        -6.2381612858        2.9067770849       -0.4572894914
 H        -6.3048090068        1.5782840943        0.8277389215
 H        -7.7705609944        2.7946342838        2.7243050850
 H        -8.6840900753        1.3670697902        2.1424931276
 H        -9.4703866665        2.7812255146        2.4458244691
 H       -14.1699391070        8.0757549862        0.7630238097
 H       -13.6827123813        6.4675669679        0.0025399391
 H       -13.3108349320        8.0295110704       -0.8913866758
 H       -10.7398634205        9.1375188581        1.6497375865
 H       -12.3710838941        9.7602435011        1.3974356404
 H       -11.2394139699        9.6278671404        0.0701326483
 H       -12.6318062548        3.7868926928        7.7118871437
 H       -13.8031404095        4.0854759131        6.3389439098
 H       -12.8716295126        5.2961949882        7.0114725241
 H       -10.2868378414        3.2743153542        7.3703525974
 H       -10.2412195141        4.9580385986        6.8897555118
 H        -9.5684907746        3.7163986463        5.8442894369
 H       -12.2963823045       -2.1492947270        0.3383852630
 H       -11.4909051012       -0.6509935597        0.3464664116
 H       -13.0967620384       -0.7322507216        1.0596470740
 H       -13.3790769472       -2.1856679905        3.0448991651
 H       -12.0177296540       -2.5683729001        4.1307670970
 H       -12.2947195319       -3.5900170041        2.6625400132
 Na       -9.3449343184        5.1828443123       -2.0405791979
