117

 C        -9.6182185821       -3.4861779453        2.5449863134
 C       -10.0003073894       -2.0839133000        2.1799271453
 O        -9.0301505470       -1.3166444450        1.9821682552
 C       -11.5092257169       -1.4579940326        2.3087704418
 C       -11.4299107310       -0.0350141371        3.0558359940
 O       -11.4367725996        0.9845309989        2.3757154652
 C       -11.3273133015       -0.0285412780        4.6152669611
 C       -10.9136204926        1.3974756706        5.1251798900
 C       -12.0734717049        2.2332336385        5.6892282097
 O       -13.1841612054        1.8338801722        5.9266696992
 C       -11.7196113238        3.7253186370        5.9498029505
 C       -11.6625533757        4.5370371581        4.5775254120
 O       -10.6756765411        4.4599730109        3.8810153198
 C       -12.8082042563        5.5109634147        4.1818576782
 C       -12.8436318026        5.7295763285        2.6263515707
 C       -12.3353069798        7.1562779284        2.3252475049
 O       -12.0759694723        7.9127197593        3.2547753219
 C       -12.0773612271        7.5842023556        0.8595036524
 C       -10.9359195341        6.8121286709        0.0829887054
 O       -11.1336307394        6.3811918860       -1.0639255326
 C        -9.6961110952        6.6347349295        0.8347950675
 C        -9.4312654075        5.1487040732        1.2558679889
 C        -8.2463156341        4.4309105610        0.4411743261
 O        -7.6923664690        4.9667346142       -0.5435942265
 C        -8.0385671522        2.9841169575        0.8375760025
 C        -9.0232992533        2.2386704598       -0.3879826752
 O       -10.0282527741        2.7836574498       -0.7256189664
 C        -8.6936627775        0.8135977469       -0.8738608267
 C        -8.9582957112        0.6820253545       -2.3833295062
 C        -7.7918045571        1.2601556584       -3.1169209756
 O        -6.6992108040        1.4557520160       -2.5849078499
 C        -8.0826836680        1.6917016481       -4.6118519849
 C        -8.5483673413        3.2063772062       -4.4837798883
 O        -9.4412666522        3.3756759129       -3.6444230080
 C        -7.9462017702        4.3672016891       -5.2160032737
 C        -6.7946307563        4.9594531101       -4.4082294953
 C        -7.1519202931        6.3539427109       -3.9800821604
 O        -8.1967490386        6.6675895892       -3.4795316465
 C        -6.2090400678        7.4016807275       -4.5783470023
 C        -6.4920455735        7.5048660597       -6.1065229731
 O        -7.1029160982        6.6427529403       -6.6997561146
 C        -5.9042924289        8.7483556899       -6.7514203352
 C        -6.5074582908        8.7590982257       -3.9407261479
 C        -4.7371589023        7.1019828184       -4.3459729964
 C        -6.7635971644        1.6868502261       -5.5199614855
 C        -9.3008809839        0.9072464784       -5.2391713735
 C        -6.5067375182        2.6229925938        0.5755689536
 C        -8.5944744572        2.4148090814        2.1846597459
 C       -13.4487230369        7.4915073532        0.0962822388
 C       -11.6923239632        9.1355136978        0.9489114261
 C       -12.8954849605        4.3836909169        6.7453962781
 C       -10.2954383550        3.8151281362        6.5603571579
 C       -12.1232496479       -1.2426216180        0.8585240276
 C       -12.4827099314       -2.5327441544        2.9545335647
 H        -8.5924504470       -3.5282940640        2.4066775562
 H       -10.1510826791       -4.2558583761        2.0651074978
 H        -9.7564185568       -3.4401288451        3.6537932984
 H       -10.6682732888       -0.8519821200        5.0274192028
 H       -12.3174425614       -0.2552900330        4.9390368323
 H       -10.3777638711        1.8049912099        4.2721597675
 H       -10.2647648493        1.2146223390        6.0738238609
 H       -12.5311196976        6.4797436341        4.5677755134
 H       -13.7990888108        5.2359369094        4.5296180321
 H       -13.8505653190        5.5613400601        2.1662951227
 H       -12.2549638191        5.0087923747        2.1765195212
 H        -9.5477344338        7.3624819316        1.6355117867
 H        -8.7992802556        6.8038148243        0.1926550757
 H       -10.2799635299        4.4670384800        1.1886712342
 H        -9.2743666888        5.1044229887        2.3189363150
 H        -9.4912446501        0.0876732130       -0.4700835241
 H        -7.6749773596        0.3585640477       -0.7233494008
 H        -9.8780403994        1.2555041719       -2.3664328543
 H        -9.1603615680       -0.4028031906       -2.6316632743
 H        -8.6737939106        5.0905606952       -5.4293993425
 H        -7.4982228080        3.9484296343       -6.1125365392
 H        -5.9320820385        4.9149816303       -4.9788167079
 H        -6.5590578702        4.2446226195       -3.5805832448
 H        -5.8226410634        8.6487444516       -7.8617999364
 H        -4.9779162429        9.0253769737       -6.2788137050
 H        -6.5953314564        9.5117899159       -6.6819307464
 H        -7.4397561675        9.2617761336       -4.0929147895
 H        -5.6609209588        9.4162056803       -4.2272821730
 H        -6.5285707183        8.7038597062       -2.8494216613
 H        -4.5370981646        6.1348229201       -4.7734436620
 H        -4.5843128970        7.0733431115       -3.2590432077
 H        -4.0421685212        7.8452602695       -4.7060690410
 H        -7.0789124203        1.8137980740       -6.5900203469
 H        -6.1628363633        0.7342454236       -5.3415515885
 H        -6.1422595992        2.5144922561       -5.2017027281
 H        -9.0894365307        0.5700626706       -6.2879779494
 H       -10.2807849421        1.3617339849       -5.1727816492
 H        -9.2255754462       -0.0671175869       -4.7433915068
 H        -5.9282974382        3.3601707728        1.0746898508
 H        -6.3495581508        2.7375956940       -0.5356835886
 H        -6.2741539390        1.6189074611        0.8985867790
 H        -7.8472945129        2.6218628739        2.9808490094
 H        -8.7198801831        1.3770036672        2.0412916242
 H        -9.5611008133        2.6883376701        2.5562054342
 H       -14.1707442881        8.0394755799        0.6758290072
 H       -13.7541928254        6.4475257708       -0.0557777983
 H       -13.1743091131        8.0080814610       -0.8224381884
 H       -10.7677046757        9.2236161639        1.5697946272
 H       -12.4523807086        9.7619605284        1.3131629327
 H       -11.4690854660        9.5570301488       -0.0020531921
 H       -12.7584760859        4.1615796268        7.7697437338
 H       -13.7763206281        4.1126836290        6.2655005102
 H       -12.8564452994        5.4235920302        6.7158697291
 H       -10.2179464736        3.2926091698        7.5279884064
 H       -10.0684214891        4.8613724528        6.7199246461
 H        -9.5891067375        3.3887108018        5.8285928502
 H       -12.1419954213       -2.2164368044        0.3784711369
 H       -11.4561803212       -0.6615336696        0.2114586972
 H       -13.1525485795       -0.8376176565        0.8000046743
 H       -13.5058340042       -2.1112644719        2.9913978955
 H       -12.1535339832       -2.8344123947        3.9937735855
 H       -12.4538745482       -3.4069107601        2.2570984521
 Na       -9.4411003800        5.2125806808       -1.9878301246
