117

 C        -9.2499606799       11.7229748755       -3.3906396665
 C        -8.1319705197       10.6694628232       -3.4841177305
 O        -8.3026761688        9.4717629559       -3.2272006148
 C        -6.5697134890       11.0956959522       -3.6633931563
 C        -6.2013560801       11.3322007383       -2.1715024306
 O        -6.3858278542       12.4605524432       -1.7129474924
 C        -5.5074811679       10.2369178080       -1.2535313656
 C        -6.5335004098        9.1443347397       -0.8120406642
 C        -5.6692378044        7.9413643993       -0.2915526268
 O        -4.8484062946        7.4549183074       -0.9914076855
 C        -5.8793383430        7.4695048573        1.1665684221
 C        -7.3106635961        7.0236113562        1.5202178255
 O        -7.8003837331        6.9698546425        2.6212790975
 C        -8.0886896021        6.2493373916        0.4392785565
 C        -9.6047856213        6.4559126237        0.5728214923
 C       -10.3733982495        5.1856702036        0.2979230143
 O        -9.9624060106        4.1448636903        0.7300879960
 C       -11.6681064912        5.2736517468       -0.6068309512
 C       -12.6636794000        4.1014442580       -0.3410343676
 O       -12.5139798472        3.0381887227       -0.9196329840
 C       -13.8853059310        4.3802633586        0.6669468551
 C       -14.6745176031        3.1077153788        0.8937712393
 C       -13.7664594838        2.2593509712        1.8778080724
 O       -12.7286361571        2.6293560573        2.3823958087
 C       -14.3245726820        0.9050866776        2.4004440439
 C       -13.3527863145       -0.2194573776        1.9505582569
 O       -12.2811641865       -0.0282522681        1.4276188777
 C       -13.7239940071       -1.6770384293        2.2976302208
 C       -12.8726361253       -2.7684953637        1.7103021587
 C       -12.9174588276       -2.5807931154        0.2097112458
 O       -13.7673867086       -1.8216942999       -0.2557585939
 C       -11.8984763214       -3.3448701711       -0.6321670179
 C       -10.4530331251       -2.7906158312       -0.2985119560
 O        -9.8267948155       -2.7331700037        0.8054189064
 C        -9.7162690802       -2.0840851109       -1.4667366493
 C        -8.4430046911       -1.3974272670       -0.9559151777
 C        -8.6550133554        0.0795686559       -0.5502771619
 O        -9.7163872026        0.6146209252       -0.8478873837
 C        -7.5211578294        0.8022898373        0.1325095614
 C        -8.0185804008        0.7857286451        1.6271236224
 O        -9.0522157020        1.3693354156        1.9603404982
 C        -7.1594476771        0.1261793325        2.6946555125
 C        -6.1916659992        0.0501568219       -0.0013678210
 C        -7.2353599053        2.3957138602       -0.1531520468
 C       -11.6843840271       -4.9029690264       -0.4537354614
 C       -12.3354170320       -3.0729950944       -2.1872935390
 C       -14.4338281294        0.8437641360        3.9302922219
 C       -15.6844694811        0.6577424667        1.6817783731
 C       -12.4562400850        6.6087058591       -0.3707746034
 C       -11.1001772204        5.1086341748       -2.1099163152
 C        -5.0102689549        6.1698739076        1.3159755584
 C        -5.3404886467        8.6958280362        2.0144318596
 C        -5.6102879133       10.2041874938       -4.3281685626
 C        -6.6021614897       12.4161596349       -4.3791027999
 H        -9.6616540764       11.7278009979       -4.4004887390
 H        -8.7142340973       12.5824563383       -2.9303502948
 H        -9.9664000016       11.4475171538       -2.6232528471
 H        -5.2515932487       10.7075748078       -0.2951650049
 H        -4.7271892537        9.7106138617       -1.8259276187
 H        -6.9831197800        8.8095587363       -1.7417005204
 H        -7.3121042914        9.5957403415       -0.1692829641
 H        -7.8710878284        5.2084700145        0.3982697821
 H        -7.9228921464        6.7061695397       -0.5476286208
 H        -9.8727182699        7.2025415657       -0.1273905666
 H        -9.8963444905        6.7974017819        1.5326667039
 H       -14.5467583973        5.1803711069        0.2401740721
 H       -13.5518577157        4.7817626465        1.6185280484
 H       -14.9060312815        2.5027678743       -0.0025858454
 H       -15.6585347697        3.3084420961        1.3014424069
 H       -14.7782229283       -1.9780931117        1.9929335542
 H       -13.6904983887       -1.5401158601        3.4069124460
 H       -13.2826256220       -3.7256004227        2.0046990702
 H       -11.8231420492       -2.7451217327        1.9580412771
 H       -10.4206824738       -1.4397332354       -2.0306464469
 H        -9.3567742659       -2.8178988224       -2.1930603156
 H        -7.6183549432       -1.4100891302       -1.6654963401
 H        -8.0675342030       -1.9279293967       -0.0233113648
 H        -6.8545170448       -0.8706354547        2.4666588890
 H        -7.6578503242        0.2468622688        3.7893310884
 H        -6.2745751078        0.6964381886        2.9088184561
 H        -5.9037150716        0.0185196166       -1.1260810192
 H        -6.1242053014       -0.9401885347        0.3055614618
 H        -5.3776096705        0.5407328917        0.5549487342
 H        -8.1840320085        2.8399597057       -0.1075293630
 H        -6.8522658160        2.5631245711       -1.1727130016
 H        -6.4603806530        2.7896359007        0.4955912713
 H       -10.6384392694       -5.0560779767       -0.7247257077
 H       -12.3516782116       -5.3994944643       -1.2298821641
 H       -11.9373896127       -5.3570009785        0.4725115331
 H       -12.8772326382       -2.1313226443       -2.2407310090
 H       -13.0995569375       -3.8067582338       -2.2942635229
 H       -11.5203484153       -3.2263921159       -2.8285512077
 H       -14.8885592774        1.7209948541        4.3316533802
 H       -13.4176303902        0.8485122246        4.3539279471
 H       -15.0913726646        0.0238560065        4.2589078576
 H       -16.3008231628        1.5988929152        1.8379253605
 H       -16.3358893510       -0.0876968668        2.2296049914
 H       -15.5617443279        0.5511095807        0.6287232761
 H       -13.4055512718        6.6655115225       -0.8101402446
 H       -11.9735930953        7.3823730566       -0.8973672170
 H       -12.5229998494        6.8703938735        0.7523122452
 H       -10.6537068386        4.1210368368       -2.0898057889
 H       -10.5016022433        5.9551136810       -2.4825369429
 H       -11.9874371482        5.0625429614       -2.7487224793
 H        -4.0546149357        6.2324092246        0.7947113064
 H        -5.5672448363        5.3686837406        0.8868834908
 H        -4.8668208233        6.0371769297        2.3864363074
 H        -5.7979898377        9.6103274225        1.7089114420
 H        -4.3100078922        8.9348969829        1.8220901319
 H        -5.3645079570        8.5828588512        3.0681790333
 H        -5.5247415854        9.1793167858       -3.8559948420
 H        -4.5283591879       10.5356739756       -4.2031562421
 H        -5.7714763445       10.1745441646       -5.3881286033
 H        -6.9598425606       12.2341414705       -5.3631971774
 H        -5.6571376134       12.9455551752       -4.4251291241
 H        -7.2501830242       13.2084343522       -3.9050593502
 Na      -10.9034860558        1.7960266765        0.7861959018
