117

 C        -9.9912633281       -3.4983985995        2.1786835464
 C       -10.0757999207       -1.9544067625        2.3420205324
 O        -9.0712646291       -1.2948428598        2.4139224931
 C       -11.5406304757       -1.1781254219        2.2360359650
 C       -11.4107139588        0.2336843645        2.9390815052
 O       -11.1738315620        1.2380186464        2.3018363841
 C       -11.8088964107        0.2893660628        4.3959233159
 C       -11.1876671037        1.4773420808        5.0899575078
 C       -12.1400497698        2.3970943452        5.7850487888
 O       -13.2741192058        1.9751165508        6.1068137138
 C       -11.7979306602        3.8714382188        6.1583827636
 C       -11.7160308272        4.5756578948        4.7545007226
 O       -10.8748896547        4.1687603656        3.9400952589
 C       -12.8555783398        5.4760862957        4.2760399455
 C       -12.7000449734        5.7562279693        2.8218424591
 C       -12.0485282782        7.1159188280        2.3968934823
 O       -11.5991741273        7.8920347378        3.1796257459
 C       -12.1091409816        7.5054131955        0.8525059129
 C       -10.8432558321        6.9002494525        0.0601910124
 O       -11.0303346146        6.4030578981       -1.0373176403
 C        -9.4881957268        6.8570671024        0.8396217589
 C        -9.2276413241        5.4155912540        1.4250113530
 C        -8.2782579469        4.6344361549        0.4336944042
 O        -7.6649870686        5.2049648598       -0.4799640614
 C        -8.0087284093        3.1208636469        0.6586356297
 C        -8.8308083793        2.3481607415       -0.4506500007
 O        -9.7320333856        2.9507436756       -1.0248802390
 C        -8.5518992245        0.8474351178       -0.6583412916
 C        -8.8842070708        0.4291308807       -2.1572253571
 C        -7.8297709171        0.9882257897       -3.1216928955
 O        -6.7042080422        1.1823856564       -2.7408163917
 C        -8.2176861331        1.4219459516       -4.6193890346
 C        -8.5760525632        2.9423924524       -4.4643733694
 O        -9.4646319658        3.1399438631       -3.5952914021
 C        -8.0011015586        4.1430814941       -5.2182846807
 C        -6.8201689960        4.8678969165       -4.4904320496
 C        -7.1057312476        6.3060981455       -3.9849115831
 O        -7.9793802434        6.5329001938       -3.1573434915
 C        -6.3201909401        7.4840022353       -4.6617070645
 C        -6.4072060248        7.2801476474       -6.2283728198
 O        -7.1361323797        6.4798469769       -6.7842530489
 C        -5.5916831106        8.2593338055       -7.0172814119
 C        -6.8330128949        8.8097797770       -4.2166208698
 C        -4.7293510380        7.3626917882       -4.3246899755
 C        -7.0296046621        1.2078506222       -5.6466406642
 C        -9.4689770044        0.6841848750       -5.0453518995
 C        -6.4124152164        2.8710150022        0.5933327259
 C        -8.5138465343        2.7373551558        2.1437309987
 C       -13.3842244507        7.0570235648        0.1307946446
 C       -12.0059786899        8.9903295341        0.7228783333
 C       -12.8988700400        4.4194328156        7.1242650812
 C       -10.3394691275        3.8458205394        6.6916471397
 C       -11.8818829176       -1.0508555068        0.7601741610
 C       -12.6069039096       -2.1083873253        2.7724072227
 H        -8.9518881698       -3.7187647413        2.1173391409
 H       -10.5949559187       -3.7839013010        1.3251750558
 H       -10.3826297543       -3.9100295718        3.1281504672
 H       -11.5955113146       -0.6558093512        5.0492335801
 H       -12.9012066177        0.4004279253        4.5509323153
 H       -10.5139604482        1.9876270668        4.4302185480
 H       -10.6370092592        0.9837950992        5.9975275885
 H       -12.9227064491        6.3716003662        4.8208810891
 H       -13.7846330314        4.9583148463        4.4689998200
 H       -13.7108528084        5.7901220419        2.3298696895
 H       -12.2243992102        4.9692232795        2.3186984238
 H        -9.5496403112        7.6069016845        1.6129934961
 H        -8.6521598524        7.0961277683        0.1128237672
 H       -10.1743204556        4.9110590448        1.6142873063
 H        -8.7726397482        5.4598164146        2.3949355994
 H        -9.1866215270        0.3200334843        0.1788246481
 H        -7.4897462422        0.4761674858       -0.5095767707
 H        -9.9096108620        0.7876371202       -2.2844240564
 H        -8.9398647482       -0.6852948518       -2.1720104929
 H        -8.8075699203        4.8355259172       -5.3882303076
 H        -7.6692557363        3.8561123782       -6.2539305124
 H        -5.8860643533        4.8079408437       -5.0057077907
 H        -6.6286626807        4.3490112140       -3.4753698288
 H        -5.1317376405        7.7516824471       -7.8693147202
 H        -4.8861790530        8.8148210410       -6.4304568840
 H        -6.2567318385        8.9345657985       -7.4843717019
 H        -7.8858582014        8.9555217243       -4.4355008452
 H        -6.2950340470        9.6290920337       -4.7534082955
 H        -6.6982122864        8.9487791564       -3.1128748662
 H        -4.3624959352        6.4867534015       -4.7758409950
 H        -4.6646228542        7.2531057649       -3.2481156810
 H        -4.1337520472        8.2093883265       -4.6038187943
 H        -7.3211080776        1.6674974838       -6.5689390181
 H        -6.6532685412        0.2115452225       -5.8779774779
 H        -6.2677432642        1.8028776913       -5.2757381200
 H        -9.9975927839        1.3053206069       -5.7382911937
 H       -10.1381826054        0.3795125144       -4.2661992146
 H        -9.1902305331       -0.1524478329       -5.6051559606
 H        -5.9576385093        3.5986069702        1.2933326057
 H        -6.1131079993        3.0087592220       -0.4795873587
 H        -6.2638409381        1.8262498297        0.9403620926
 H        -7.9201806493        3.3096295132        2.8892850265
 H        -8.2454136478        1.7406066758        2.4144989030
 H        -9.5691295426        2.8078572789        2.3030378126
 H       -14.1791581498        7.4424114048        0.7757789075
 H       -13.4660800328        5.9336600082        0.1838969740
 H       -13.3867765921        7.4597253252       -0.9019781101
 H       -11.0644489013        9.4185279925        1.1869366626
 H       -12.8178178888        9.4737731870        1.1228496767
 H       -12.0277456097        9.3134770594       -0.3047854161
 H       -12.9521732437        3.7459316470        8.0027694534
 H       -13.8594244924        4.3887026548        6.5968046805
 H       -12.6322945912        5.4182765547        7.4615849281
 H       -10.1798182945        3.0761746053        7.4120057122
 H       -10.1115608726        4.7637427265        7.1049855787
 H        -9.6567221766        3.6310332570        5.8530003245
 H       -11.6734054756       -1.9775254154        0.2967612179
 H       -11.3495426924       -0.2508564953        0.2567087466
 H       -12.9369362296       -0.9380548279        0.5584344074
 H       -13.4979766415       -1.5666589687        2.6308491858
 H       -12.4348740149       -2.3319130161        3.8223496296
 H       -12.6385877936       -3.0537928628        2.2286521410
 Na       -9.4820031395        5.0913748343       -2.1495114667
