117

 C       -10.1323936138       -3.2469563560        2.0103043529
 C       -10.2855967637       -1.8028843269        2.3018658947
 O        -9.3371471897       -1.1424255391        2.6821625911
 C       -11.7072695029       -1.1453985732        2.1851304619
 C       -11.4895252867        0.2643502622        2.8723594667
 O       -11.0333555098        1.1982813559        2.2671042772
 C       -11.8454465293        0.3042735227        4.3614867544
 C       -11.2814892803        1.5666695372        5.0068935737
 C       -12.2777430387        2.4237479244        5.7543132287
 O       -13.4330336369        2.0689423227        6.0671415743
 C       -11.7491913166        3.9516007961        6.1414282449
 C       -11.5926981217        4.5948519073        4.7693381479
 O       -10.6714384245        4.3189052816        4.0121855507
 C       -12.7461467452        5.5978005368        4.4102450262
 C       -13.0050372332        5.8187212493        2.9057418574
 C       -12.0821581860        6.9900090703        2.3155416492
 O       -11.2779516336        7.5278357227        3.0143589093
 C       -12.1365171154        7.4037627613        0.8249263206
 C       -10.8405830648        6.7104690620        0.1946396934
 O       -10.9699826747        6.0210456816       -0.8088950989
 C        -9.5090320110        6.9535394858        0.8959776534
 C        -8.9697686868        5.6207187304        1.6079756832
 C        -8.2401320332        4.7739782305        0.5706671557
 O        -7.7649702570        5.3191969280       -0.4088311993
 C        -7.8383121596        3.2867514166        0.7210734809
 C        -8.6129032364        2.5069248710       -0.3849841096
 O        -9.4028744349        3.0765996544       -1.1252927372
 C        -8.3651022056        0.9850247479       -0.5748068923
 C        -8.8676021015        0.5110562851       -1.9645513290
 C        -7.8849520893        0.9136653490       -3.0575657707
 O        -6.6802383112        0.9066261220       -2.9188701584
 C        -8.3314040532        1.4139990595       -4.5318770720
 C        -8.7009674393        2.9382099994       -4.4353612081
 O        -9.7679481921        3.2038945403       -3.8539419899
 C        -7.8614825368        4.0033420324       -5.1344343198
 C        -6.8430361652        4.6980563265       -4.2536073832
 C        -7.1265959769        6.2475526977       -4.0519811698
 O        -8.0304392519        6.5930467160       -3.3051984450
 C        -6.3104498742        7.2912154015       -4.7996889332
 C        -6.3124614239        7.1676340979       -6.3874060677
 O        -7.1151851595        6.3847057356       -6.8417683384
 C        -5.4847464297        8.0966895692       -7.3175851792
 C        -7.0493708715        8.5963504334       -4.5118907956
 C        -4.9295512228        7.2471607320       -4.0722437419
 C        -7.1406379503        1.1411292998       -5.3990367411
 C        -9.5750936099        0.5666719858       -4.9262598423
 C        -6.2285543883        3.1521942472        0.5505799289
 C        -8.3009016275        2.7074739121        2.0827343865
 C       -13.3296956977        6.9259457585        0.0849797876
 C       -12.0777032725        8.9298980088        0.6671099830
 C       -12.8477196356        4.6456983669        7.0880815916
 C       -10.3441077466        3.8686007689        6.8231938394
 C       -11.8779769612       -0.9475973681        0.6744934867
 C       -12.8480055611       -2.0945138793        2.7097639258
 H        -9.0839575283       -3.4830356952        2.0585714749
 H       -10.5398372944       -3.3674023942        1.0247351830
 H       -10.7952671258       -3.7689777348        2.7877230335
 H       -11.4887278686       -0.5494040905        4.9457159210
 H       -12.9112487470        0.2573621767        4.5868232698
 H       -10.8630956597        2.2091242721        4.2358474400
 H       -10.4936651948        1.2804732249        5.6697281782
 H       -12.6067965908        6.5362070258        4.9917301270
 H       -13.7413250966        5.2526433112        4.8851539365
 H       -14.0898651398        6.2611008078        2.8535989028
 H       -13.0520287356        4.9361158526        2.2485726562
 H        -9.8595445870        7.6968369623        1.6533202529
 H        -8.7991560816        7.3755797569        0.2064411463
 H        -9.7332760725        5.1598377574        2.2375393797
 H        -8.1285396460        5.9833904411        2.3119242302
 H        -8.7680053025        0.5189006781        0.2988392201
 H        -7.3033993315        0.8139722547       -0.4591586494
 H        -9.8701919961        0.8665190286       -2.0422080012
 H        -8.9609842875       -0.5839900418       -2.0047950049
 H        -8.5219669448        4.7697013232       -5.6178081093
 H        -7.3838005840        3.5591456463       -6.0528826232
 H        -5.8369085941        4.5758906868       -4.5977737449
 H        -6.8760945772        4.4042071439       -3.1811411616
 H        -4.5835487158        7.5717259599       -7.8236130689
 H        -5.1240978908        9.0090069087       -6.7971617779
 H        -6.1113057342        8.4811123354       -8.0871024525
 H        -7.9409306849        8.7265028637       -5.0719104639
 H        -6.4026085078        9.4187299668       -4.8149589954
 H        -7.1538931444        8.7345480195       -3.4574487815
 H        -4.4914394769        6.2230891997       -4.2230434802
 H        -5.1330424844        7.3905824210       -2.9867278366
 H        -4.2225089285        7.9701231245       -4.5181443011
 H        -7.2419739459        1.3484568186       -6.4964500956
 H        -6.9262901361        0.0266898192       -5.3381819158
 H        -6.2781823220        1.6321890255       -4.9888631524
 H        -9.6214567349        0.4498244695       -6.0541766380
 H       -10.5084851936        0.8923614909       -4.4669410251
 H        -9.4217325750       -0.4585696489       -4.5014748585
 H        -5.7633694078        3.5719604214        1.3800200752
 H        -6.0441834620        3.7203612725       -0.3677800884
 H        -6.0362950673        2.1172358210        0.3972488926
 H        -7.7318359941        3.1770366898        2.9240335793
 H        -7.9287247212        1.7028732787        2.2163939131
 H        -9.3706348528        2.7629150416        2.2813165672
 H       -14.2300334168        7.3553780625        0.4850867559
 H       -13.3682979724        5.8639884376        0.0915269986
 H       -13.1992784097        7.3109321881       -0.9153363878
 H       -11.3268396596        9.4182349880        1.3920722002
 H       -12.9971642360        9.3575353703        1.0267931790
 H       -11.8423355481        9.3742551627       -0.2991324028
 H       -12.6992220894        4.2216241693        8.0999111030
 H       -13.8433244374        4.2347183290        6.9706069164
 H       -12.7188709652        5.7145236833        6.9946630083
 H       -10.4288015659        3.4444567592        7.8523340320
 H        -9.8996021090        4.8850345357        6.8880570200
 H        -9.6265581339        3.2217382898        6.2711001774
 H       -12.0704504329       -1.8567776459        0.0824259506
 H       -10.9489608507       -0.4728199211        0.3473155929
 H       -12.6859800713       -0.2312468566        0.4201081406
 H       -13.7687900410       -1.5360849558        2.9265584096
 H       -12.4698443485       -2.6084986934        3.6036301945
 H       -13.0227049588       -2.8335811570        1.9359724502
 Na       -9.3604890374        5.0334827964       -2.2101536778
