117

 C        -9.3816952691       11.5283643266       -3.4902016211
 C        -8.1965105822       10.6089077151       -3.5363879509
 O        -8.3920842335        9.3823639692       -3.3524715562
 C        -6.6898332793       11.1290816719       -3.7426418066
 C        -6.1880479401       11.4403856153       -2.2116760925
 O        -6.3506561589       12.5139103698       -1.7173192122
 C        -5.5432305996       10.3606409817       -1.2361675763
 C        -6.4819147867        9.2038886696       -0.8551135973
 C        -5.7026215955        7.9894484338       -0.3300289939
 O        -4.8777648417        7.4718048650       -1.0715023801
 C        -5.8186940545        7.5385683207        1.1896387208
 C        -7.2743794310        7.0158228498        1.5276502599
 O        -7.7802074075        7.0327279139        2.6405095144
 C        -8.0319596325        6.3001407241        0.2816199516
 C        -9.5470302258        6.5259667231        0.4985701427
 C       -10.4110866588        5.1760256341        0.3129586018
 O        -9.9915291278        4.0858449417        0.6964000007
 C       -11.7348222729        5.3450767533       -0.5685803813
 C       -12.7090134413        4.1868782299       -0.3426044833
 O       -12.4916797885        3.1243095830       -0.8271381621
 C       -13.9024813989        4.4137584838        0.5111002848
 C       -14.6066143235        3.1275286849        1.0467207175
 C       -13.7940411485        2.2976597705        1.9631025295
 O       -12.7192330720        2.7200340533        2.3738944083
 C       -14.4006631089        0.9169257678        2.4311775978
 C       -13.2792292674       -0.2653506913        2.0854592899
 O       -12.1972596913        0.0667830587        1.6028306041
 C       -13.6613353871       -1.6582178954        2.5562987560
 C       -12.8697996124       -2.7522925201        1.8864219708
 C       -12.7814056841       -2.6487354905        0.2567608610
 O       -13.5544059015       -1.9180738556       -0.2507871545
 C       -11.7444532193       -3.4427059765       -0.7276252034
 C       -10.3990684828       -2.8424132310       -0.3481195865
 O       -10.0083682472       -2.9679171145        0.7875364723
 C        -9.5536227486       -2.1445807006       -1.4759051254
 C        -8.3792885628       -1.4240198400       -0.9198506274
 C        -8.7389628363        0.0737736984       -0.6257208227
 O        -9.8478472408        0.5567199216       -0.9043664031
 C        -7.5360761993        0.7283777557        0.1705998327
 C        -8.0132079053        0.8294733594        1.6678252257
 O        -9.0434671694        1.3073773368        1.9196474620
 C        -7.1071259486        0.2899944883        2.7190073742
 C        -6.2125737104       -0.0567526409       -0.0025957535
 C        -7.1526326003        2.2007747821       -0.1339858293
 C       -11.9136978534       -4.8937529235       -0.3312390291
 C       -12.2522004902       -3.1405201777       -2.1780373235
 C       -14.5069454115        0.8918174998        3.9745399407
 C       -15.7887713047        0.6065941940        1.8449040389
 C       -12.3802399851        6.7283510861       -0.6827372216
 C       -11.0846233892        5.0615654189       -1.9367794873
 C        -4.9570904750        6.2603636604        1.3683359297
 C        -5.3593820544        8.7101096966        2.0905442222
 C        -5.7728927724       10.1313374435       -4.4293820074
 C        -6.7341223831       12.4939028014       -4.5838927240
 H        -9.6292504348       11.6766952354       -4.5401137219
 H        -9.2566886732       12.2898566232       -2.6869036244
 H       -10.1219400205       10.8939928703       -3.0960453753
 H        -5.3984614734       10.8035817826       -0.2826114501
 H        -4.6488742863        9.8240546510       -1.7627353386
 H        -7.0813802510        8.9614370872       -1.7234891263
 H        -7.1426820524        9.5310306176       -0.0807992209
 H        -7.9231303205        5.2527409655        0.2588060947
 H        -7.7264338150        6.7090025748       -0.6781731119
 H        -9.9507696812        7.3099071822       -0.1814266370
 H        -9.6836307857        6.8777390153        1.4658376530
 H       -14.6144011738        4.9605216822       -0.0673103043
 H       -13.6715175345        5.1092252551        1.3094425414
 H       -14.8088574510        2.3237051769        0.2445412627
 H       -15.5803143224        3.3368443179        1.3803001146
 H       -14.6620690356       -1.7141901402        2.1587436737
 H       -13.7065178116       -1.6189762353        3.6334622521
 H       -13.1209061730       -3.7282138228        2.2390613799
 H       -11.8189704439       -2.6231208254        2.1851846555
 H       -10.1915764183       -1.4982313028       -2.0487518595
 H        -9.1883183870       -2.8615748476       -2.2172723191
 H        -7.4589790565       -1.5413729812       -1.5290774214
 H        -8.1416737466       -1.7383871903        0.1806027305
 H        -6.8119973463       -0.7094836447        2.3568343351
 H        -7.4404319502        0.3157688227        3.7166843987
 H        -6.1750278247        0.8533384212        2.7948907176
 H        -5.8943725076       -0.1088934738       -0.9933926867
 H        -6.1671262003       -1.1216619397        0.4063064350
 H        -5.3815507131        0.4178867783        0.5761206568
 H        -8.0793598609        2.8316077572       -0.0442052070
 H        -6.8124201414        2.2596391745       -1.1343641928
 H        -6.2455118332        2.4988927264        0.4461138027
 H       -11.1473114541       -5.4998036405       -0.7554478406
 H       -12.9105012561       -5.1740351476       -0.6590867030
 H       -11.9355762820       -4.9801952623        0.7172294272
 H       -12.5724677243       -2.0902374426       -2.1368483328
 H       -13.1057109734       -3.7089849081       -2.4191880855
 H       -11.4295514547       -3.4127427668       -2.8272003337
 H       -14.9935050258        1.8168785846        4.2870033507
 H       -13.5359110790        0.9372731467        4.4481070349
 H       -15.2105596008        0.1379523387        4.3494344319
 H       -16.5009106634        1.4821771025        1.8662830752
 H       -16.2719402975       -0.1655316746        2.5217684019
 H       -15.6944622187        0.3635619842        0.7772001210
 H       -13.3593996452        6.6464428188       -1.1345402320
 H       -11.8661108295        7.4074040773       -1.4300288222
 H       -12.5221432494        7.2198099979        0.2542347397
 H       -10.8819164270        3.9914461363       -1.9820514929
 H       -10.1573394610        5.6489538702       -1.9516804685
 H       -11.7283137001        5.4514222977       -2.7571124527
 H        -3.9385750462        6.4934976278        1.0495023293
 H        -5.3440185138        5.5552977998        0.6638570247
 H        -4.9505361702        5.9066468991        2.3910985447
 H        -5.8387425183        9.6437841039        1.8225712990
 H        -4.3369409695        8.9874367083        2.0612435254
 H        -5.5024948374        8.4762578247        3.1519374745
 H        -5.7769938285        9.1362291491       -4.0678777888
 H        -4.6725276221       10.3414328436       -4.2293914809
 H        -5.9305192785       10.1906999226       -5.5015086860
 H        -6.7235986735       12.2166592003       -5.6611763634
 H        -5.8790733629       13.1469374460       -4.3441769396
 H        -7.5386259439       13.2027966692       -4.4416166866
 Na      -10.7952117907        1.8454531125        0.7229642844
