117

 C       -10.5274251890       -3.2277220580        1.7632234556
 C       -10.5061274322       -1.7630958241        2.2684799470
 O        -9.5728334375       -1.2879250417        2.9123145553
 C       -11.7995273387       -1.0119540329        2.0541757621
 C       -11.7337180060        0.4288950601        2.8439521949
 O       -11.4795652612        1.4881198725        2.2458367119
 C       -11.8550684142        0.3893884346        4.3388311731
 C       -11.2301962848        1.6006158186        5.0394852111
 C       -12.3212439963        2.6700518638        5.6289013830
 O       -13.4715974574        2.4382039289        5.6293952546
 C       -11.6921503745        4.0423896258        6.1510308666
 C       -11.8082611221        4.9716342030        4.8949007330
 O       -10.8939548237        4.9818365225        4.0664391329
 C       -13.1631156318        5.5558619692        4.4721003734
 C       -13.1685956361        5.8213690122        3.0066671946
 C       -12.0652922873        6.8314412694        2.5409990381
 O       -11.4854897247        7.5738952086        3.2906163661
 C       -11.9901151465        7.1532543445        0.9766240662
 C       -10.8324485533        6.4936367952        0.3440245568
 O       -10.9636966984        5.7279087128       -0.5843105884
 C        -9.3321606687        6.9825265487        0.7347938287
 C        -8.5208987137        5.7962578551        1.3836257614
 C        -7.7527664579        4.9370711912        0.4578626859
 O        -7.4734307294        5.4037996767       -0.6328974528
 C        -7.3954886688        3.3777968555        0.7265142730
 C        -8.3016436197        2.6299577739       -0.3149287878
 O        -9.1321506356        3.1913709798       -0.9649067430
 C        -8.0643526321        1.1232113946       -0.4513613663
 C        -8.7925921281        0.6152123547       -1.6990210115
 C        -7.8256316641        0.9834505960       -2.8975118472
 O        -6.6674897944        1.2714800086       -2.7533727459
 C        -8.4615422753        1.1782786532       -4.3318662063
 C        -8.6570665707        2.7562201066       -4.3819807267
 O        -9.5261149884        3.1871468965       -3.6118890889
 C        -7.6577925955        3.6997370275       -5.0548504647
 C        -7.0014168958        4.7139387002       -4.0214778264
 C        -7.4864708554        6.1796672062       -4.3374546568
 O        -8.5571179751        6.5667012900       -3.9046105155
 C        -6.4510450323        7.2138917291       -4.9847735857
 C        -6.2249221040        6.7205275931       -6.5276208045
 O        -6.8921908667        5.8010604462       -6.9419849772
 C        -5.1894305914        7.3779618671       -7.3593802684
 C        -6.9738911645        8.6783618810       -4.9229383503
 C        -5.1489168772        7.1861165000       -4.1439432750
 C        -7.4740674776        0.6412291932       -5.4516547675
 C        -9.8306845776        0.5420012971       -4.5622198023
 C        -5.9007217223        3.1508077874        0.6661913240
 C        -7.8761464419        3.0354909374        2.1473113743
 C       -13.2445767896        6.6406519826        0.3029618875
 C       -11.9613938729        8.6567548418        0.7868454605
 C       -12.6095830291        4.4352956333        7.3436022210
 C       -10.1974068548        3.9085625630        6.4772883654
 C       -12.0604079712       -0.7479577975        0.5308951165
 C       -12.9984560677       -1.8665239693        2.5938679663
 H        -9.4909567405       -3.4706830711        1.4765385609
 H       -11.2327709192       -3.3425029327        0.9009506523
 H       -10.8706565459       -3.7455081513        2.6058130609
 H       -11.5118059964       -0.6028542240        4.7696026952
 H       -12.8836408173        0.4943517378        4.5968404883
 H       -10.6143990153        2.0259284325        4.3430092236
 H       -10.4976671782        1.3888022988        5.8714742841
 H       -13.3386394821        6.4650372019        5.1138604310
 H       -13.9856899251        4.9182359197        4.8658602667
 H       -14.2001245087        6.1273326878        2.6301320699
 H       -12.8015477945        4.9000434363        2.4703394770
 H        -9.4644318625        7.7628462178        1.3829484330
 H        -8.9629843515        7.3435207785       -0.2540132981
 H        -9.3029167095        5.1528811769        1.8913147756
 H        -7.8333603313        6.2408372943        2.1060228283
 H        -8.4109792031        0.7114565246        0.4825038572
 H        -7.0038745447        0.8838742161       -0.3772433661
 H        -9.7827325793        1.0429604019       -1.9168222375
 H        -8.8821705939       -0.4429366311       -1.5443483814
 H        -8.3317843990        4.2195198262       -5.7997703904
 H        -6.8672899787        3.1178375491       -5.6332191844
 H        -5.9351002493        4.7482212496       -4.1184379372
 H        -7.2285789825        4.5051000673       -2.9512342291
 H        -4.2471158956        7.2375005672       -6.8820013470
 H        -5.3367355770        8.4794780316       -7.4759985387
 H        -5.2153695557        6.9784586427       -8.4347748090
 H        -7.8868666047        8.7081800886       -5.4991456530
 H        -6.2521546565        9.3559768296       -5.3515418146
 H        -7.1504100059        8.9984066131       -3.8888300401
 H        -4.5107048076        6.3511294627       -4.3962004085
 H        -5.5215698460        6.9570021492       -3.1218224734
 H        -4.6760956469        8.1923167164       -4.1443213654
 H        -7.6140048017        1.0770520665       -6.4653102076
 H        -7.4106381557       -0.4522901061       -5.5456926507
 H        -6.3944835604        0.9706729807       -5.2224261581
 H       -10.2728891533        1.0564865263       -5.4333620009
 H       -10.5859087299        0.6251183121       -3.6931571310
 H        -9.7322518490       -0.5222908466       -4.8478080616
 H        -5.4883479799        3.8694484956        1.3689316677
 H        -5.5663216490        3.2527882317       -0.3047064277
 H        -5.7859918078        2.1739082253        1.0615359367
 H        -7.4393574214        3.7134419270        2.8972672276
 H        -7.6647579457        1.9829092622        2.3887378608
 H        -8.9445434692        3.2038367233        2.2857213939
 H       -14.1186776795        6.8164585446        0.8838556831
 H       -13.0653826003        5.5774612921        0.1418228377
 H       -13.4633241131        7.0796304886       -0.6335840047
 H       -11.3148191520        9.2665573208        1.3746406730
 H       -12.9568463882        9.0404639479        1.0840906200
 H       -11.7738404874        9.0015729106       -0.2788459882
 H       -12.4540393495        3.7286545156        8.1639013305
 H       -13.6443900493        4.4026325710        6.9263018032
 H       -12.3680089789        5.4456213100        7.7669276619
 H        -9.9297151067        2.9960280051        7.0548168475
 H        -9.7727471108        4.7588529326        7.0180177584
 H        -9.6290051759        3.9038585377        5.4939925091
 H       -12.0302449426       -1.6745071015       -0.0145925438
 H       -11.3348069514       -0.1072460950       -0.0067990295
 H       -13.0249346118       -0.2472785120        0.4716956053
 H       -13.8930158961       -1.2369249396        2.6079175257
 H       -12.8461313232       -2.1372336155        3.6649823641
 H       -13.2017227580       -2.7732560239        1.9528259463
 Na       -9.4298981306        5.1471835755       -2.3250418771
