117

 C       -10.9218271698       -3.1950576037        1.7470819187
 C       -10.8197395548       -1.7450500233        2.2208852395
 O        -9.8518133311       -1.2184414991        2.7046551721
 C       -12.1569442758       -0.8019315833        1.9314666464
 C       -11.8394277609        0.5601588306        2.7303547636
 O       -11.5113261007        1.5963916655        2.2405972819
 C       -11.8531328226        0.3663723384        4.3263962805
 C       -11.1134497336        1.4894855912        5.0484424124
 C       -12.0040003505        2.6334740522        5.5253208237
 O       -13.2616464727        2.5411806660        5.4110656960
 C       -11.4527755765        4.0006974847        6.0728374579
 C       -11.5206582041        4.9674154713        4.7267297427
 O       -10.6120830568        5.0033857292        3.9341782527
 C       -12.9031268287        5.6304002741        4.3370508226
 C       -12.9568408201        5.8385689503        2.8678643015
 C       -12.2305076623        7.1439364728        2.4190222713
 O       -11.6906937189        7.8557424012        3.2062025315
 C       -12.1241918482        7.3043555202        0.9003998340
 C       -10.8640233259        6.6418110496        0.3869569688
 O       -10.9184310263        5.8214133363       -0.5324012266
 C        -9.5139009945        6.9997695511        1.1888951182
 C        -8.7797231650        5.7244151740        1.5744205341
 C        -7.9917600912        5.0617448836        0.4516329533
 O        -7.7152378982        5.6497561546       -0.6112828077
 C        -7.4321354922        3.6545813826        0.7073818389
 C        -8.1949191551        2.5790532278       -0.1817690661
 O        -8.9622158775        2.8845950437       -1.1032658381
 C        -7.8236864671        1.0965380260       -0.0723931112
 C        -8.2420142067        0.3698565841       -1.3752256863
 C        -7.6380293444        1.0002686543       -2.6432713174
 O        -6.5027228843        1.4227313708       -2.6640760580
 C        -8.5762550653        1.2081223408       -3.9859193060
 C        -8.7017282386        2.7877041283       -4.1376877190
 O        -9.7210345031        3.3250436072       -3.8221250683
 C        -7.5721668696        3.4636767639       -4.9004825862
 C        -6.7201919892        4.5594313159       -4.1255431742
 C        -7.3327756786        5.9525174511       -4.3195035907
 O        -8.3867862676        6.2786869615       -3.7917708054
 C        -6.5499540303        6.9938207234       -5.1896616788
 C        -6.0968685527        6.2760666447       -6.5657872140
 O        -6.6722184748        5.2954879814       -7.0081618069
 C        -4.9427635859        6.8883654861       -7.3438629162
 C        -7.4686488745        8.2335031413       -5.4257167747
 C        -5.2582754914        7.4134336043       -4.3469593503
 C        -7.9458705256        0.5433253964       -5.2202498948
 C        -9.9902619104        0.5897590234       -3.7913419858
 C        -5.8626636080        3.4586922193        0.2315660237
 C        -7.5569408927        3.1122047540        2.1284513722
 C       -13.3674895153        6.7308480425        0.1657793102
 C       -12.0375315187        8.8274099617        0.7087169213
 C       -12.4166157679        4.4961343964        7.1658524627
 C       -10.0330726737        4.0021336410        6.6346250523
 C       -12.3050560497       -0.5313552652        0.4183024354
 C       -13.3653796899       -1.5712066907        2.5126743514
 H        -9.9125638962       -3.5625261165        1.6271261325
 H       -11.4948585702       -3.1855765736        0.8484598399
 H       -11.4802275266       -3.7022347830        2.5678096945
 H       -11.2831574669       -0.4686646910        4.6555069918
 H       -12.9166298205        0.2676426056        4.6973479020
 H       -10.2611074236        1.8351102391        4.4980745235
 H       -10.5948641011        1.0825488038        5.8555759251
 H       -12.9298969217        6.6154877340        4.9030324171
 H       -13.7799184683        5.0466488112        4.6458039400
 H       -13.9931447966        6.0168994900        2.6169117328
 H       -12.4217688187        4.9632906988        2.3276809293
 H        -9.8861175506        7.5904352429        2.1025994137
 H        -8.8926135837        7.6365692178        0.6039340947
 H        -9.5057541769        5.0306870328        2.0755104414
 H        -8.0463466653        6.0635416008        2.3177669467
 H        -8.3812101844        0.6649967497        0.7872728321
 H        -6.8120007625        1.1652252300        0.3186373838
 H        -9.3134131657        0.1884518105       -1.4995336920
 H        -7.7727022753       -0.6057579154       -1.3338924013
 H        -8.1982364163        3.9116092642       -5.7553075335
 H        -6.8639432935        2.6979399587       -5.2187230799
 H        -5.6430276019        4.5488746735       -4.4663023850
 H        -6.6682571272        4.3456305282       -3.0800697098
 H        -4.7025088319        7.9919976780       -7.1221418332
 H        -5.0359242588        6.7869526315       -8.4351186064
 H        -4.0683337446        6.3171263823       -7.0679254330
 H        -8.3544129667        7.8999212859       -5.9961018020
 H        -6.8765316004        8.8976180419       -6.0432516436
 H        -7.8214543956        8.6621806254       -4.5015943090
 H        -4.5325517877        6.5700639835       -4.3054725442
 H        -5.5547966982        7.7649744961       -3.3783151112
 H        -4.7779563595        8.2626953499       -4.8187403297
 H        -8.4617407532        0.8779224436       -6.1723989777
 H        -8.0630936493       -0.5865939135       -5.1656511054
 H        -6.8886003234        0.6460898726       -5.4953983843
 H       -10.6782754341        0.7403921112       -4.6645757352
 H       -10.4483297701        1.1707227894       -3.0143913602
 H        -9.9399503421       -0.5223748507       -3.5898790734
 H        -5.3265025331        4.2043739036        0.7300678520
 H        -5.8656955618        3.5636488360       -0.8401159792
 H        -5.5482007894        2.5129963237        0.5698995508
 H        -7.0514963533        3.7661041816        2.8065550508
 H        -7.1826544485        2.0830224387        2.2514614161
 H        -8.6240366002        3.0394285513        2.3974015864
 H       -14.2569903942        7.0860116317        0.7044488975
 H       -13.4226058479        5.6713551177        0.0752855718
 H       -13.4404021401        7.1329167454       -0.8385170537
 H       -11.1469795078        9.2791894001        1.1991705214
 H       -12.9282278543        9.4123102896        1.0162812223
 H       -11.9562302383        9.1180042260       -0.3311464619
 H       -12.0937567828        3.9855527559        8.0867862201
 H       -13.4596879188        4.2954974064        6.9377735037
 H       -12.3763947668        5.5563008256        7.3801487092
 H        -9.7977075231        3.0388637076        7.1229446408
 H        -9.9292384964        4.7980271052        7.4379817549
 H        -9.2217998377        4.1584111560        5.9577898135
 H       -12.4245830504       -1.4833751251       -0.1498627291
 H       -11.4005616948       -0.0415521723        0.0776520371
 H       -13.1797633944        0.0531248799        0.1519946422
 H       -14.3427469734       -1.2891455883        1.9949039360
 H       -13.4931740681       -1.4898151305        3.6095442238
 H       -13.3200292816       -2.6551989944        2.3222518107
 Na       -9.3923594147        4.9836905492       -2.0722380771
