117

 C       -10.9950257882       -3.2122792359        1.7583111688
 C       -10.8900749156       -1.6979395743        2.1370092770
 O        -9.8549170930       -1.2780833452        2.5956488478
 C       -12.1058650304       -0.7794960287        1.9815954509
 C       -11.8211588088        0.4849926480        2.7841828466
 O       -11.5696184835        1.5392622887        2.2288728248
 C       -11.8646777888        0.3839871034        4.2965473673
 C       -11.0832983139        1.4989811270        5.0367375082
 C       -12.0386602853        2.6553708918        5.4451615872
 O       -13.2486557590        2.4724941678        5.4417075257
 C       -11.4544779915        4.0784455509        6.0382158656
 C       -11.5071405214        4.9258349546        4.7502021945
 O       -10.5577376078        4.9788212171        3.9840125179
 C       -12.8227455317        5.5828271050        4.3244165877
 C       -12.8363240065        5.7711501889        2.8718740420
 C       -12.1512760933        7.1267374852        2.4013622744
 O       -11.6691846829        7.9739730890        3.1369513655
 C       -12.2007055345        7.4019499720        0.8558419498
 C       -10.9208953170        6.7020666088        0.3994717190
 O       -10.9094981580        5.8647583341       -0.5019524035
 C        -9.5288505203        6.9802904516        1.1733618742
 C        -8.8441242448        5.6285555429        1.6844587402
 C        -7.9772948599        4.9964210824        0.5281044473
 O        -7.8129495829        5.6633125442       -0.4548426229
 C        -7.3810859179        3.6031877980        0.7235997313
 C        -8.0867781520        2.6066372691       -0.2689998106
 O        -8.9160969738        2.9695616813       -1.0492930046
 C        -7.7277716230        1.0936632925       -0.0491760448
 C        -8.1797838493        0.3006799838       -1.3338564386
 C        -7.6615400566        1.0177722557       -2.5305870058
 O        -6.5141785438        1.4127914457       -2.6113152178
 C        -8.6105437301        1.2128631673       -3.8388334614
 C        -8.6555694632        2.7231733946       -4.2098909491
 O        -9.6919674965        3.3265624702       -3.8876819971
 C        -7.5004655901        3.4198772725       -4.9395236700
 C        -6.7078472742        4.4925101744       -4.1946660567
 C        -7.2869998575        5.9046086047       -4.3113863039
 O        -8.3468137412        6.2296046233       -3.7512102583
 C        -6.5418375870        6.9523402842       -5.1879985175
 C        -6.0920148471        6.2470854150       -6.4704527140
 O        -6.7262612320        5.2838485023       -6.8422303852
 C        -4.9531285162        6.8512616811       -7.2849176126
 C        -7.4735249354        8.0082878951       -5.6490551556
 C        -5.2803013744        7.4500321397       -4.4378784013
 C        -8.0297563969        0.4985113847       -5.1439423066
 C       -10.0176211790        0.7251566669       -3.5886448991
 C        -5.9182530581        3.5988609930        0.1238480129
 C        -7.5210602840        3.0957837811        2.1771459634
 C       -13.3671870779        6.8373531228        0.0909072733
 C       -12.0941149595        8.9021186919        0.6200081841
 C       -12.3737812246        4.5379689091        7.1300154080
 C       -10.0193219044        4.0050219582        6.4880309592
 C       -12.3240027676       -0.3893318520        0.4914974889
 C       -13.4127890355       -1.4328068729        2.5102090913
 H        -9.9426830676       -3.4922771334        1.7266558486
 H       -11.5236785144       -3.3336918346        0.8104378493
 H       -11.5322315850       -3.7494727466        2.6129634830
 H       -11.4489536973       -0.5422772072        4.6934028412
 H       -12.9991072509        0.4564160123        4.5219046507
 H       -10.1767617929        1.8178377169        4.4426981097
 H       -10.5688033009        1.1357457325        5.8738552625
 H       -12.9389411509        6.4745403290        4.9060673759
 H       -13.6557667043        4.9209689657        4.5228002139
 H       -13.8801663223        5.8816470679        2.5709653918
 H       -12.2793891620        4.9649616858        2.4316923384
 H        -9.7462167184        7.7087202857        1.9987773435
 H        -8.9255705666        7.4978582589        0.4040756656
 H        -9.6230301209        4.9764901914        1.9302242998
 H        -8.3189994467        5.8732354924        2.6293512969
 H        -8.2604804175        0.6989467654        0.8898960598
 H        -6.6748500640        1.1688078295        0.3005579571
 H        -9.2383083632        0.1720160022       -1.5477048488
 H        -7.7137066917       -0.7167120391       -1.2379891870
 H        -8.0702826458        3.8102611475       -5.8002494915
 H        -6.7260170182        2.6702282672       -5.2078887827
 H        -5.6702949885        4.5134397154       -4.6122202551
 H        -6.5527497846        4.1302705243       -3.1358338931
 H        -5.1132935405        7.9394279286       -7.4646262249
 H        -4.8798046229        6.3927301799       -8.2851978090
 H        -3.9712450558        6.7655789654       -6.7861837999
 H        -8.3996319385        7.5702626215       -5.9029666956
 H        -7.0297106376        8.5018890643       -6.5221140140
 H        -7.6377330072        8.6804595153       -4.8250023687
 H        -4.4940408249        6.6732315963       -4.5886915830
 H        -5.4627753124        7.7042681637       -3.3673368724
 H        -4.9075023487        8.3724857198       -4.9189253489
 H        -8.4948399797        0.9147248651       -6.0575955368
 H        -8.1915477119       -0.6053018464       -5.1799618848
 H        -6.9850494059        0.5837337245       -5.3646297775
 H       -10.7271231222        1.2105749262       -4.3151621259
 H       -10.4027011572        1.0991091453       -2.6110262330
 H       -10.0874252369       -0.3666199830       -3.7425022637
 H        -5.5147441794        4.5077078301        0.4570412641
 H        -6.0713863393        3.6063092385       -0.9466347492
 H        -5.3811920567        2.7565716612        0.4952543371
 H        -6.9994295598        3.8367861735        2.8640016289
 H        -7.0374286741        2.1311484852        2.3785029926
 H        -8.5815728708        2.9739934820        2.4183123739
 H       -14.2311006352        6.9600046121        0.7006287425
 H       -13.2961789797        5.7826522744       -0.0561764105
 H       -13.5510718347        7.3108300514       -0.8607563362
 H       -11.1113432719        9.2941312152        1.0888565316
 H       -12.8772098139        9.5507659163        0.8895623543
 H       -11.9756417332        9.1295996010       -0.4486918942
 H       -12.0822848364        3.8933955430        8.0270084723
 H       -13.4555468402        4.3656720583        6.8777280862
 H       -12.3168821118        5.6084947617        7.4286256377
 H        -9.6903174072        2.9849888354        6.8015017313
 H        -9.7890554947        4.6866515720        7.3021776131
 H        -9.2932198858        4.2597507127        5.6601339733
 H       -12.4250812328       -1.3246343047       -0.0794920472
 H       -11.4943075156        0.2053371769        0.1094690276
 H       -13.2914166399        0.1077912166        0.3078732568
 H       -14.2251449541       -1.0132270363        1.9105898108
 H       -13.6553739688       -1.3373156075        3.5806796526
 H       -13.5145224209       -2.5061496814        2.3185127383
 Na       -9.4949874060        4.9425584783       -2.1484540564
