117

 C       -11.0763426724       -3.2596464759        1.7509768296
 C       -10.9223252802       -1.7323077150        2.0935615731
 O        -9.8227070119       -1.3001572766        2.4494699964
 C       -12.1753973729       -0.8051689237        1.9884402895
 C       -11.8497716152        0.5508499743        2.8587059064
 O       -11.5664916863        1.5755601865        2.2311747589
 C       -11.8283219548        0.4529405754        4.3577415270
 C       -11.0548689402        1.5958161106        5.0549207842
 C       -12.0546615705        2.6237858230        5.4998650767
 O       -13.2176454442        2.5004666643        5.4639689547
 C       -11.4269222034        3.9528601925        6.0004676596
 C       -11.4798420736        4.8593361914        4.7320349847
 O       -10.4620911477        4.9669469954        4.0674902612
 C       -12.7859930552        5.5528931410        4.3424676562
 C       -12.8870211226        5.8525904584        2.7892232828
 C       -12.2908728405        7.2308088353        2.3615689197
 O       -11.7178190387        7.9383636660        3.1801299837
 C       -12.1381026983        7.4941860274        0.8091554228
 C       -10.7769215335        6.6830781892        0.3478649784
 O       -10.9143208841        5.9076971646       -0.5562277317
 C        -9.5198052967        6.9032940631        1.1130590836
 C        -8.9905033519        5.6005154181        1.6485053845
 C        -8.0535963712        5.0220003067        0.6150393536
 O        -7.8217850691        5.6116778828       -0.4234738278
 C        -7.3501874601        3.6371110136        0.7780217534
 C        -8.1359149874        2.5781079426       -0.1832909432
 O        -8.8643646578        2.9385133042       -1.0727246152
 C        -7.7050055035        1.0809542906       -0.0698175571
 C        -8.1597977236        0.2089694560       -1.2634492354
 C        -7.6272623621        0.9635658476       -2.6534675741
 O        -6.5248421761        1.4569153317       -2.6188711026
 C        -8.6904313555        1.1940729820       -3.7568347563
 C        -8.6323892144        2.7431249576       -4.1653119792
 O        -9.6181461358        3.4436695487       -3.9217881567
 C        -7.4172357637        3.3131315611       -4.9510739571
 C        -6.7214764191        4.3813051183       -4.1186464000
 C        -7.2723668870        5.8306541006       -4.2561944170
 O        -8.2658293653        6.1704654758       -3.6778602816
 C        -6.5092651306        6.8908825779       -5.2025803137
 C        -6.0839453155        6.1570462038       -6.4991626221
 O        -6.7235545233        5.2109339400       -6.9222914050
 C        -4.9582232276        6.7694443484       -7.2894050150
 C        -7.5625381462        7.9852402911       -5.7953316147
 C        -5.3166112246        7.5530271423       -4.4075108868
 C        -8.1035436915        0.3601605458       -4.9207022087
 C       -10.1103608696        0.8211383592       -3.4294645611
 C        -5.9119287515        3.8238904874        0.1530354596
 C        -7.3397716659        3.1068566699        2.2208824561
 C       -13.4210138498        6.9197431371        0.0184399908
 C       -12.0492261568        9.0368537040        0.5044495915
 C       -12.3664147775        4.5744059841        7.1047743942
 C        -9.9178894572        3.8670806828        6.3908004935
 C       -12.2895529160       -0.3110196997        0.5241864737
 C       -13.5433818988       -1.3810135650        2.4741913457
 H       -10.0539820515       -3.6904803929        1.6524940436
 H       -11.6975934249       -3.2827763150        0.8031428026
 H       -11.6158078524       -3.7086263169        2.5556357101
 H       -11.4165506975       -0.5663139401        4.7049976823
 H       -12.9016565932        0.5617571908        4.5807315533
 H       -10.3409144601        2.0815375938        4.3414546983
 H       -10.2485237433        1.3190987050        5.8422969039
 H       -12.8520348494        6.3912714086        4.9736017661
 H       -13.5694698074        4.8242763553        4.5498849747
 H       -13.9012936913        5.7172216119        2.4057685812
 H       -12.1705180659        5.2674010767        2.3556810914
 H        -9.7507276013        7.5712294355        1.8729685422
 H        -8.8092656147        7.4208178086        0.3812772144
 H        -9.7595128643        4.9148244999        1.9472494614
 H        -8.4776392370        5.8819402108        2.5601947509
 H        -8.0234308579        0.5783334278        0.8645807383
 H        -6.6186859248        1.1986483566        0.0862738282
 H        -9.2125864184       -0.0570659651       -1.4638509201
 H        -7.5847783497       -0.6853437192       -0.9150345190
 H        -7.8715035305        3.6861579790       -5.8173676842
 H        -6.6398640654        2.5663823460       -5.1298555962
 H        -5.6746617780        4.3635043646       -4.3727103919
 H        -6.7353853952        3.9829520509       -3.0382186938
 H        -5.3446027557        7.5694821268       -7.8213803661
 H        -4.5767725219        6.1060578386       -8.0666524227
 H        -4.1193663626        7.1890676117       -6.6752493828
 H        -8.5098022237        7.5027681789       -5.9223050174
 H        -7.2127657788        8.3948508639       -6.7234279572
 H        -7.6651656714        8.7166435083       -4.9998428834
 H        -4.4260049230        6.9267594124       -4.3512083039
 H        -5.7016045371        7.9185011378       -3.4167763682
 H        -5.0192267742        8.4763119803       -4.9745033748
 H        -8.3792775397        0.6259414714       -5.8938943957
 H        -8.2890236284       -0.6584601739       -4.8383424588
 H        -7.0168141322        0.4210847868       -4.9377974063
 H       -10.7385355276        1.2175539959       -4.2105889420
 H       -10.4782590231        1.3258684464       -2.4896406855
 H       -10.2259000951       -0.2455401250       -3.4401530149
 H        -5.6136876258        4.8190191635        0.5531381297
 H        -6.0277538909        3.8327741219       -0.9063091427
 H        -5.2886396489        3.0201385402        0.5602737522
 H        -6.8396256080        3.8435344766        2.8986651967
 H        -6.6768326415        2.2299159932        2.3430368369
 H        -8.3576617280        2.8193712656        2.5347856718
 H       -14.3387298944        7.0517274352        0.5588398895
 H       -13.3893896668        5.8091523571       -0.0300185083
 H       -13.5183111811        7.3057839187       -0.9772640107
 H       -11.2847210825        9.5604869824        0.9772159456
 H       -12.9795539075        9.5221543215        0.8096523833
 H       -12.0148648012        9.3409936302       -0.5663746934
 H       -12.2902660494        4.0055812378        8.0580271076
 H       -13.4700405718        4.6649166891        6.8267620128
 H       -12.0413617120        5.6470756438        7.2928043902
 H        -9.5871659184        2.9488257781        6.8843807166
 H        -9.6719555886        4.6789797144        7.0367248298
 H        -9.1947821636        3.9700136005        5.5282332640
 H       -12.4604434959       -1.1197303251       -0.1637360572
 H       -11.3926263332        0.2850606921        0.2621348203
 H       -13.1950780078        0.2967572950        0.4047320565
 H       -14.3456260796       -0.7501712713        2.2495338923
 H       -13.5191224696       -1.5911168351        3.5271931169
 H       -13.8294160107       -2.3419758761        2.0440690505
 Na       -9.5803301949        4.9474177447       -2.2134502078
