117

 C       -11.2195798708       -3.2273090533        1.7430249980
 C       -11.0086475580       -1.7449115927        2.1057544040
 O        -9.8814964192       -1.3226398620        2.2571356538
 C       -12.2120139544       -0.7108258269        2.0028651303
 C       -11.8226319892        0.5706171883        2.8560181422
 O       -11.5585498325        1.6000462218        2.3238237493
 C       -11.7861629781        0.3553879677        4.3455299205
 C       -11.0927179510        1.5865354766        4.9527998043
 C       -12.0047554604        2.6433958922        5.6077671717
 O       -13.2330028679        2.5241792226        5.5084013998
 C       -11.3564275869        4.0291864417        6.0006338056
 C       -11.4254841908        4.9064655360        4.6591587399
 O       -10.4049554951        5.0113563063        4.0102565440
 C       -12.7763999786        5.5316218368        4.2437800124
 C       -12.9006106502        5.8629115897        2.6757027460
 C       -12.2383874520        7.1915859906        2.3756207228
 O       -11.8442101575        7.9909167934        3.1601635422
 C       -12.1653453799        7.5124415887        0.7963380924
 C       -10.8900640235        6.7974627493        0.2495604381
 O       -10.9809896701        5.9910484292       -0.6421253679
 C        -9.6235553987        6.9897662291        1.1552144298
 C        -9.0574215494        5.6013107940        1.5682548368
 C        -8.1526957978        5.0049760665        0.5746223444
 O        -7.8474391635        5.5729526221       -0.5034592529
 C        -7.3601996906        3.5836152261        0.7774855559
 C        -8.0188700840        2.5355615383       -0.1500952198
 O        -8.8267062403        2.8827726938       -1.0587754052
 C        -7.5747991355        1.0362230888       -0.0144073467
 C        -8.0525797847        0.2712872494       -1.1863259845
 C        -7.7467275441        1.1476656466       -2.5323138285
 O        -6.5852151026        1.4192539446       -2.6767658984
 C        -8.7217617647        1.1786293137       -3.7316145216
 C        -8.6418056056        2.7073689342       -4.1667017720
 O        -9.5178324282        3.4934190084       -3.9456534651
 C        -7.3421539836        3.1868945898       -4.8328631199
 C        -6.6500601594        4.4129263264       -3.9898881110
 C        -7.2675591420        5.7972651666       -4.2700539118
 O        -8.1916579250        6.1866201851       -3.5965807761
 C        -6.5688670489        6.7875318641       -5.2079646216
 C        -6.0525376267        6.0965558850       -6.6073234174
 O        -6.6641172092        5.1416850458       -7.0560623025
 C        -4.8624918074        6.6723059509       -7.3869650964
 C        -7.6015108485        7.8763440216       -5.7005699631
 C        -5.5490760558        7.5811257243       -4.4466276631
 C        -8.2092078572        0.1649437585       -4.7707313150
 C       -10.1969442557        0.9090623679       -3.3276377625
 C        -5.9024750307        3.9263436535        0.2562947907
 C        -7.1473279877        3.1270688735        2.2499107513
 C       -13.3728185072        7.0382026441       -0.0016684798
 C       -11.9646209717        8.9908102609        0.4735521668
 C       -12.2110652723        4.6190129460        7.1384844340
 C        -9.9476245513        3.7313023370        6.5120137995
 C       -12.2655165412       -0.3155761384        0.5118498313
 C       -13.5042566708       -1.3239722095        2.4512348343
 H       -10.2682176730       -3.7266633301        1.5566673976
 H       -11.8752630601       -3.1537482368        0.8816663405
 H       -11.7581996966       -3.6762149978        2.5395929748
 H       -11.1546154830       -0.5570905865        4.5306512507
 H       -12.7589449324        0.2481407936        4.7378265027
 H       -10.3653176690        2.0387217638        4.2819557510
 H       -10.3679852741        1.2568711091        5.7991599809
 H       -12.7624707749        6.5287539823        4.7382111979
 H       -13.6115842956        4.8874545068        4.5507863896
 H       -13.8918725019        6.2188352731        2.5121529337
 H       -12.5645365559        5.1155632529        1.9356539436
 H        -9.8119967281        7.6765557769        1.9947559537
 H        -8.9290744169        7.4625681216        0.4773480086
 H        -9.8484412619        4.7956880625        1.7944103765
 H        -8.5284411210        5.6940758903        2.4995084557
 H        -8.1430955611        0.6482677059        0.7879507898
 H        -6.5706009084        1.0648853479        0.3445413684
 H        -9.1131362557        0.0012888880       -1.2312941105
 H        -7.4607105080       -0.6265102052       -1.1611900999
 H        -7.6264763089        3.5659931511       -5.8177930400
 H        -6.6245528801        2.4226129573       -4.8835961734
 H        -5.5832432885        4.3709062153       -4.2145023381
 H        -6.7266422573        4.2205609105       -2.9371663898
 H        -5.1977115692        7.1929407877       -8.2776658234
 H        -4.2656059715        5.8935959218       -7.7924776737
 H        -4.2823850469        7.3576349585       -6.8239103333
 H        -8.5613746781        7.3916912968       -6.0076575234
 H        -7.1467469735        8.3679746374       -6.5370587125
 H        -7.7581838661        8.5531152526       -4.8614924120
 H        -4.7217622808        6.9768318857       -4.0643514302
 H        -6.1041408089        8.0625915488       -3.6591732800
 H        -5.1054970359        8.3646656335       -5.0725381012
 H        -8.6402905601        0.2592317712       -5.7241140440
 H        -8.5041690251       -0.8041973151       -4.4921024287
 H        -7.1629201029        0.0993935247       -4.9403485189
 H       -10.8716729243        0.9433828409       -4.1467816752
 H       -10.4797754457        1.6482418056       -2.6361506379
 H       -10.2600651713       -0.0742466178       -2.8787565158
 H        -5.6263015667        4.8123017505        0.8713797546
 H        -5.9771194616        4.1442497927       -0.8225177880
 H        -5.2928992682        3.0436839923        0.5194447804
 H        -6.6224852124        3.8770055322        2.7544287017
 H        -6.3707150157        2.3418110538        2.3010271458
 H        -8.0507422690        2.7605952366        2.7701197566
 H       -14.3957806565        7.3608500067        0.2867646217
 H       -13.4774424216        5.9432943508        0.1122833789
 H       -13.1412315444        7.2497894789       -1.0470442372
 H       -11.2513569524        9.4423629197        1.0837795587
 H       -12.9116272103        9.5085834095        0.7261942055
 H       -11.8006006015        9.2987450212       -0.5250656278
 H       -12.2498257952        4.0239058349        8.0404707158
 H       -13.2639037799        4.7565526113        6.8420298485
 H       -11.8602225279        5.6381464549        7.3342894896
 H        -9.9626951469        3.0598032052        7.3465041502
 H        -9.4181409665        4.6431656013        6.8320947170
 H        -9.3031251279        3.2901643529        5.8263121773
 H       -12.5802376993       -1.1512339695       -0.1075509641
 H       -11.2983397995        0.0937434596        0.2312421721
 H       -13.0231181874        0.4256505204        0.3357584212
 H       -14.3490716435       -0.7410204155        2.7549421666
 H       -13.2952698714       -2.0318305912        3.1988998036
 H       -13.8508837032       -1.9571079838        1.6817823592
 Na       -9.5980639272        4.9704952843       -2.1896381497
