117

 C       -11.4992558309       -3.2583649741        1.7705124040
 C       -11.0436754642       -1.7398490404        1.9425217096
 O        -9.8724278869       -1.3739535527        1.9905313784
 C       -12.2251818219       -0.6477133473        1.8927819461
 C       -11.8094115518        0.5233401204        2.7930695623
 O       -11.5704023120        1.6455303781        2.3319365612
 C       -11.7181838153        0.3632535924        4.3166210388
 C       -11.1343760284        1.5019429595        5.2085764251
 C       -12.0318748008        2.6411704582        5.6123307779
 O       -13.1918778249        2.5197900275        5.6003513937
 C       -11.3154116445        4.0339506671        5.9462492380
 C       -11.3238937839        4.8858905906        4.6739072001
 O       -10.3199477915        5.0427564132        4.0108871213
 C       -12.6916877935        5.5047084375        4.2536614584
 C       -12.9170576839        5.7944316602        2.8004135806
 C       -12.4006963028        7.2598162563        2.3267921668
 O       -12.0634898974        8.0974611527        3.1594507339
 C       -12.2245734077        7.5392948816        0.7934710107
 C       -10.9502853306        6.7629105443        0.2046485075
 O       -11.0370019867        6.1801610446       -0.8676607099
 C        -9.6242581430        6.8301061915        0.9604800960
 C        -9.0614493969        5.5251977679        1.5092035997
 C        -7.9736280073        5.0361318086        0.4548423083
 O        -7.9138018813        5.5088828149       -0.6289780524
 C        -7.1444105207        3.6700679112        0.7569989738
 C        -7.8614975130        2.5978009357       -0.1406410515
 O        -8.6693236367        2.9212966170       -0.9557625148
 C        -7.4124474997        1.0619311031        0.1001576180
 C        -8.0592091722        0.3161257275       -1.0481274931
 C        -7.7222665901        1.0326770195       -2.3764608449
 O        -6.5892905851        1.4334751865       -2.5237963931
 C        -8.7703274491        1.1499302652       -3.5639441908
 C        -8.5259733385        2.6442130008       -4.0434974117
 O        -9.4251292210        3.4977084806       -4.0345933261
 C        -7.2373921910        3.1212157686       -4.6877262085
 C        -6.6339295015        4.3690801273       -4.0363763216
 C        -7.2493733797        5.7195967719       -4.2854472559
 O        -8.1728415207        6.1327758322       -3.5860093279
 C        -6.7165190149        6.6926271697       -5.3318488999
 C        -6.0926631230        6.0002919340       -6.6277107968
 O        -6.6038044557        5.0033644473       -7.0808168123
 C        -4.8258057892        6.5756171223       -7.2787421172
 C        -7.8871641294        7.6111470393       -5.8930694305
 C        -5.5347434978        7.4286958923       -4.5657298188
 C        -8.5435148045        0.0658096013       -4.6222469138
 C       -10.2487153883        1.1039252929       -3.1555946807
 C        -5.6993856071        3.9203860547        0.1910365617
 C        -7.2946373139        3.3781544244        2.2999263866
 C       -13.5014544263        7.1767228428       -0.0870387666
 C       -11.8665148163        9.0581312711        0.6983466668
 C       -12.1895939450        4.7736218206        7.0173654388
 C        -9.8641583340        3.8834080450        6.4923206388
 C       -12.3786181373       -0.1744496689        0.4188839025
 C       -13.5609480009       -1.2136377139        2.4168145590
 H       -10.5914407173       -3.7610663647        1.4959565733
 H       -12.2630426380       -3.2814804775        0.9979547158
 H       -11.8962311491       -3.6547791240        2.6998627570
 H       -11.1082493051       -0.5095605491        4.4429890589
 H       -12.7436317917        0.2168402212        4.7312149877
 H       -10.4221860440        2.0025038265        4.5505158961
 H       -10.5462869858        1.1344745959        5.9869129128
 H       -12.8616464690        6.4538111803        4.7992467844
 H       -13.4362974858        4.7111243448        4.4788632285
 H       -14.0042157359        5.6268704059        2.4766363612
 H       -12.1959090225        5.1883537259        2.2040077977
 H        -9.8460917431        7.4496660867        1.8197629185
 H        -8.8721904560        7.4013295712        0.3323612691
 H        -9.8142318875        4.7934231253        1.7159110542
 H        -8.6793866411        5.7585275462        2.5504895025
 H        -7.7436935236        0.8375487121        1.1465041770
 H        -6.3159725678        1.1322545488        0.1058682388
 H        -9.1115177911        0.1786090195       -1.0774258643
 H        -7.6200890492       -0.6569161119       -1.3431208120
 H        -7.4460139721        3.4788567444       -5.7230993094
 H        -6.4127335999        2.3355356357       -4.7238387990
 H        -5.5783179475        4.3311955401       -4.2472823065
 H        -6.7501234456        4.2534634552       -2.9342669851
 H        -4.8001947244        6.3915272144       -8.3334522310
 H        -3.9711389685        5.9532350529       -6.9351769704
 H        -4.6527119653        7.6752770252       -7.1189316526
 H        -8.3085644979        7.1137037465       -6.7439953759
 H        -7.4629545348        8.5876952350       -6.2314646903
 H        -8.6122206936        7.7244768566       -5.0736087171
 H        -4.8394628017        6.7049171352       -4.2000323703
 H        -5.9275632679        7.9329052740       -3.6828422743
 H        -4.9713892898        8.0964058376       -5.1809222829
 H        -9.2708037650       -0.0591037377       -5.4596673277
 H        -8.4903697386       -0.9923119146       -4.2676451088
 H        -7.5494122528        0.2330276896       -5.1209374041
 H       -10.8427845645        1.0196943553       -4.0636664486
 H       -10.5836173993        1.9726185377       -2.5131513686
 H       -10.4236601209        0.2203978722       -2.5692225728
 H        -5.1101936030        4.3396979231        0.9795279303
 H        -5.8280796025        4.5340145204       -0.6732079518
 H        -5.3804751974        2.9374787879       -0.0784327090
 H        -6.7633646613        4.0939677109        2.9480842705
 H        -6.7391873786        2.5141080236        2.5233205937
 H        -8.3036157846        3.2338085885        2.5680034373
 H       -14.2641106749        7.9043377246        0.1168445916
 H       -14.0406294735        6.2737025951        0.1777371656
 H       -13.2554885063        7.2310418579       -1.1505508076
 H       -11.0413703703        9.3952918438        1.3471989542
 H       -12.6511264814        9.7970694434        0.8268912435
 H       -11.5068783881        9.1947953838       -0.3616533990
 H       -12.3704139635        4.2045390744        7.8967797318
 H       -13.2037373270        4.9017617930        6.7335347710
 H       -11.7682531155        5.7205392017        7.2339624547
 H        -9.7478434954        3.4533923521        7.4784583186
 H        -9.3707167270        4.8067918135        6.5030204460
 H        -9.2000526148        3.2788870049        5.8027759129
 H       -12.7928481259       -1.0278257755       -0.0854480459
 H       -11.4306000892        0.1132601087       -0.0056140808
 H       -13.0768762847        0.6457362624        0.2467760234
 H       -14.1570290512       -0.4009766393        2.8406441566
 H       -13.4906889777       -1.9663222784        3.2434386249
 H       -14.2228190628       -1.7112163205        1.6585320509
 Na       -9.4321413528        4.9108525256       -2.0397214999
