117

 C       -11.4778769785       -3.2236464957        1.7778209720
 C       -11.1561410975       -1.7688984731        1.8510191445
 O        -9.9830292430       -1.4700425427        1.8546063958
 C       -12.2388201097       -0.6011956661        1.9451505032
 C       -11.7816679325        0.6678297831        2.8214453535
 O       -11.5374413122        1.7117240485        2.2759796127
 C       -11.7600309102        0.3662933951        4.3412809270
 C       -11.0270250887        1.4068883652        5.1444946675
 C       -11.9698480315        2.6388456342        5.6135892475
 O       -13.1726667765        2.5671270763        5.6166248167
 C       -11.3385165727        4.0049764592        5.9949902542
 C       -11.3763709697        4.8231969127        4.6666024471
 O       -10.3498649578        5.0421757238        4.0441903248
 C       -12.6737114780        5.5179985978        4.2057483802
 C       -12.7724473261        5.7778676901        2.7255321005
 C       -12.2967289684        7.2195948608        2.3382233892
 O       -12.2574914732        8.0377479344        3.1954150781
 C       -12.1803683860        7.5605644433        0.7706454154
 C       -11.0634248553        6.7130828409        0.1892845869
 O       -11.1021471606        6.2130772511       -0.8936581141
 C        -9.6915827217        6.8634267879        0.9699952378
 C        -8.9961977696        5.5486711459        1.3679977034
 C        -7.9521971363        4.9973421848        0.4369654265
 O        -7.6359739874        5.6051939297       -0.6078244617
 C        -7.1725065402        3.7369081435        0.7777055071
 C        -7.8114980478        2.6273061073       -0.0510930969
 O        -8.6340128055        2.8835709460       -0.9476423867
 C        -7.4232832159        1.1822722818        0.0280346123
 C        -8.1064195312        0.2671049694       -0.8828919388
 C        -7.7196884436        0.9465939318       -2.3992533996
 O        -6.6003983668        1.3617778357       -2.4151473632
 C        -8.7541682700        1.2691687249       -3.5160902175
 C        -8.5756128736        2.6782305284       -4.1508427717
 O        -9.4687120664        3.4864240272       -3.9497422248
 C        -7.1722949895        3.0304226670       -4.7742145379
 C        -6.5546029724        4.2950499293       -4.0806833134
 C        -7.3537243703        5.6230619739       -4.2969398003
 O        -8.2503621492        6.0433190720       -3.6359810838
 C        -6.7104366751        6.6168174389       -5.4123760720
 C        -6.0681922145        5.8790213945       -6.5956810800
 O        -6.6557512575        4.8988533023       -7.0274677783
 C        -4.8613069368        6.5213322223       -7.1972996317
 C        -7.7842740146        7.5553869133       -5.9868005136
 C        -5.6362361374        7.4322990431       -4.6609748373
 C        -8.5412541614        0.1926667840       -4.5707503382
 C       -10.2175687214        1.1634328010       -2.9578308062
 C        -5.6573620495        3.8837759754        0.2738450497
 C        -7.2370745972        3.4570227479        2.2724652331
 C       -13.4711203548        7.3294179408       -0.0067856831
 C       -11.8812513830        9.0064116876        0.7071946855
 C       -12.2347605273        4.7765949861        7.0120514194
 C        -9.8569644034        4.0007594638        6.3806869572
 C       -12.4354111544       -0.0870687605        0.5072564051
 C       -13.5783687238       -1.1247471982        2.3914250882
 H       -10.5163096340       -3.7026152623        1.4317538309
 H       -12.3865301138       -3.3812003842        1.1203672640
 H       -11.6980812815       -3.5104808605        2.7791902111
 H       -11.3157458058       -0.7017226688        4.4351109776
 H       -12.7837176544        0.4336423067        4.7289131746
 H       -10.1656380464        1.7257197374        4.5840053896
 H       -10.6163604401        0.9355177351        6.1232546164
 H       -12.6068784185        6.4881101113        4.6283963083
 H       -13.5588204431        4.9708742027        4.4902644510
 H       -13.8576414786        5.7973068882        2.3838603323
 H       -12.2415529878        5.1288641446        2.0932149807
 H        -9.8353046958        7.4728105629        1.8216353234
 H        -9.0075368030        7.4617821460        0.2492613375
 H        -9.7228537123        4.7980130862        1.6332102091
 H        -8.5232152206        5.6928327998        2.3163007259
 H        -7.7365859975        1.0228445545        1.1077596526
 H        -6.2856039659        1.1605433021        0.0155809486
 H        -9.2187223231        0.1434292110       -0.7584408327
 H        -7.6436425458       -0.7277506676       -0.9300977612
 H        -7.2543839027        3.3639442102       -5.8199514310
 H        -6.4455897318        2.1808725906       -4.7167110882
 H        -5.5157762261        4.3929296933       -4.3972547374
 H        -6.5588292720        4.0752981228       -2.9426613740
 H        -4.5159707258        6.0233491641       -8.0873066871
 H        -3.9566035673        6.4725331410       -6.5344303928
 H        -5.1447512417        7.5805533007       -7.4576262310
 H        -8.1253402990        7.0360564993       -6.8769907162
 H        -7.4847506079        8.5509849542       -6.2235359223
 H        -8.5530843956        7.5237982247       -5.2176631608
 H        -4.7102377598        6.9285785562       -4.4127952580
 H        -6.0364034760        7.8262498852       -3.7083268590
 H        -5.3816377870        8.2641816761       -5.3470160380
 H        -9.3114976340        0.1312351986       -5.3432801552
 H        -8.5084911990       -0.8467984433       -4.2557905049
 H        -7.5633420144        0.3487668750       -5.1517080606
 H       -10.8507366535        1.4950397689       -3.7984013285
 H       -10.3785946297        1.8176728079       -2.0418058119
 H       -10.5029952437        0.1263355698       -2.6491142657
 H        -5.1017532062        4.2339903255        1.1362439348
 H        -5.6198049116        4.4950081271       -0.5658142605
 H        -5.3875887726        2.8855267869        0.0626416928
 H        -6.7683180938        4.1796627906        2.9237111627
 H        -6.6379145190        2.5480105285        2.4643413629
 H        -8.2851553987        3.2841480614        2.5795170470
 H       -14.2337280763        8.0168586416        0.2800544722
 H       -13.9242603953        6.3703790245        0.2036250101
 H       -13.2901165070        7.4441350519       -1.0415008921
 H       -11.0740998104        9.3502068097        1.2668134453
 H       -12.7540725649        9.6813303940        1.0023436052
 H       -11.6764813083        9.2551623163       -0.3818623686
 H       -12.2844813634        4.2828120624        7.9628198291
 H       -13.2980963800        4.6949997646        6.7973766417
 H       -11.9370402196        5.8325369844        7.1601295577
 H        -9.5579132516        3.3485876591        7.2266541138
 H        -9.4606138474        5.0033913572        6.6329818242
 H        -9.2276331586        3.6853918533        5.5201335593
 H       -12.8129414410       -0.8915223940       -0.1154326146
 H       -11.5053034654        0.3634942275        0.1050487310
 H       -13.1790366570        0.7123219161        0.4836375478
 H       -14.3071724920       -0.3067107634        2.3942304710
 H       -13.6315190560       -1.5145640027        3.4401153339
 H       -14.0157758889       -1.9445749039        1.7562955787
 Na       -9.3917419693        4.8480056600       -2.0688158582
