117

 C       -11.7226256136       -3.0521398964        1.8250756388
 C       -11.2808943480       -1.5539073629        1.7634483627
 O       -10.0876791821       -1.3208024676        1.5938419104
 C       -12.3301595494       -0.4447207657        1.9448615056
 C       -11.8278207767        0.6347533724        2.8678625607
 O       -11.3415045513        1.6667073600        2.3753912107
 C       -11.7961609744        0.4062929131        4.3898790473
 C       -10.9401374766        1.5250986187        5.1092394040
 C       -11.9074805853        2.6399363318        5.4696152688
 O       -13.0977889057        2.5235213675        5.6041741514
 C       -11.2793919326        4.0920248689        5.9581023956
 C       -11.3750466888        4.9273269189        4.5655993943
 O       -10.4238877360        5.0092116489        3.8243256943
 C       -12.7329057936        5.3747798568        4.0841092270
 C       -12.6318804154        5.7176719947        2.5220065472
 C       -12.3980432286        7.2021186567        2.2371947390
 O       -12.5050896583        8.0140750063        3.1343240244
 C       -12.1727868620        7.6122181494        0.7377640445
 C       -10.9478026908        6.8217934184        0.2144038374
 O       -11.1312799674        6.0424188206       -0.7544680302
 C        -9.5991842166        6.9845167100        0.7759770349
 C        -9.0135239926        5.6140974639        1.1407254557
 C        -7.6943069378        5.2073906181        0.4344334775
 O        -7.2636388216        5.8739330392       -0.4424408127
 C        -7.0310144073        3.8238637940        0.8250336027
 C        -7.7307955515        2.7351856680       -0.0185215426
 O        -8.5895924782        2.9585088238       -0.7960342049
 C        -7.5662101716        1.1702265282        0.3516192082
 C        -8.0353054188        0.3393439372       -0.9142897206
 C        -7.6693503310        0.8823068677       -2.2670672503
 O        -6.5008802552        1.1504848029       -2.5411714730
 C        -8.8548601667        1.2848906229       -3.3227378009
 C        -8.6127336784        2.6635937086       -3.9561609037
 O        -9.5370580487        3.4654627056       -3.9143585393
 C        -7.2809472069        2.9619027723       -4.6553522005
 C        -6.5280337986        4.2407368378       -4.1103011841
 C        -7.3534253090        5.5037223778       -4.4663053412
 O        -8.3468743704        5.8746435110       -3.8223146166
 C        -6.7366268814        6.5517701644       -5.5181329122
 C        -6.0205762253        5.7573516648       -6.6713177891
 O        -6.5579733310        4.7048228354       -6.9535385519
 C        -4.7718214619        6.2401787145       -7.4409990484
 C        -7.9152593455        7.3938811510       -6.0662367768
 C        -5.8411892879        7.4602793641       -4.5907225057
 C        -8.6263166685        0.2891285799       -4.4507661755
 C       -10.2733634213        1.0800936690       -2.8384499700
 C        -5.4802977984        3.8207806853        0.4311499184
 C        -7.1712580832        3.4126758572        2.3189523031
 C       -13.5828541973        7.3230288125        0.0582829389
 C       -11.7896952870        9.1318951727        0.7019211877
 C       -12.1939700325        4.6087273242        7.1183437753
 C        -9.8157563530        3.9725361307        6.4697581308
 C       -12.4755041313        0.0222300618        0.4927299203
 C       -13.6549959456       -1.0038035278        2.4499615196
 H       -10.8383525191       -3.5788993927        1.5604813830
 H       -12.5630209324       -3.2660702694        1.2001377446
 H       -11.9844483816       -3.3058224882        2.9067453147
 H       -11.3839740638       -0.5417791559        4.5266203026
 H       -12.8631938073        0.4938282729        4.7535165579
 H       -10.1949636630        1.9444957101        4.3361452360
 H       -10.3830441393        1.1336927995        5.9133006865
 H       -13.0099879010        6.2025208431        4.7688022270
 H       -13.3763238378        4.5069029359        4.1517322330
 H       -13.5014545599        5.5191612298        1.9238245044
 H       -11.8545274494        5.0967104087        1.9603810602
 H        -9.7364373670        7.7086247617        1.6423095336
 H        -8.8933353031        7.4399072270        0.1314040253
 H        -9.7380546325        4.7902490355        0.9673707478
 H        -8.9480822145        5.5034786428        2.2620791483
 H        -8.1051439879        0.8898780221        1.2378057513
 H        -6.5263715194        1.0271019474        0.5259576739
 H        -9.0682136216        0.1649707572       -1.0337972123
 H        -7.5796541281       -0.6639568423       -0.8637530859
 H        -7.4605869843        3.1183507608       -5.7175718965
 H        -6.5965680453        2.1410409000       -4.6028858712
 H        -5.5747129330        4.3458747931       -4.6686851228
 H        -6.3347793708        4.0600875050       -3.0972038872
 H        -4.0332445181        5.4534066820       -7.4065814533
 H        -4.2669099288        7.0584344990       -6.9915571254
 H        -4.9784418925        6.4438606731       -8.4675963914
 H        -8.5808784186        6.7324411156       -6.5752177902
 H        -7.4142949019        8.0496645355       -6.7974617645
 H        -8.3335495646        8.0241308175       -5.3021711509
 H        -5.0158882192        6.8703078105       -4.1153615205
 H        -6.4430185948        7.8189114247       -3.7419488747
 H        -5.3886838298        8.2847211257       -5.1427547823
 H        -9.1087462864        0.5426266666       -5.3565058284
 H        -8.9634977705       -0.7047915850       -4.3136064996
 H        -7.6251789463        0.1942465909       -4.6744975992
 H       -10.9312542510        1.5987976647       -3.5234028298
 H       -10.3345320568        1.5299670623       -1.8648719902
 H       -10.5608551204        0.0663488018       -2.6897644525
 H        -5.0398913088        4.6878793181        0.9244891746
 H        -5.5293686991        3.9579368905       -0.6904619530
 H        -5.0336144397        2.8638059049        0.7633606859
 H        -6.8896653753        4.2952324721        2.9795179038
 H        -6.5647124248        2.5421482322        2.6235230083
 H        -8.2270620249        3.3112960883        2.5731519940
 H       -14.4613019935        7.6580306923        0.6252922726
 H       -13.7274920813        6.2850518502       -0.2476428658
 H       -13.6146006130        7.9148410142       -0.8922772910
 H       -10.7233741295        9.2978829377        1.0277314880
 H       -12.3126800440        9.5834870892        1.4745879055
 H       -11.9121882458        9.6706963665       -0.1976584355
 H       -11.8990890420        4.3165797955        8.1624914270
 H       -13.2100525585        4.1654595733        7.0895189196
 H       -12.2766715878        5.6937240379        7.1634693203
 H        -9.7685590857        3.0994945364        7.1145591846
 H        -9.4823177861        4.7473221384        7.1233168808
 H        -9.0263217115        3.8436392287        5.7168804845
 H       -12.7283814506       -0.7791133468       -0.2332259148
 H       -11.5804373895        0.5428108444        0.1853366584
 H       -13.2595001911        0.7985245454        0.5053349988
 H       -14.4832533852       -0.3975548947        2.1488918200
 H       -13.7484210521       -0.9695752811        3.5033870266
 H       -13.8643844976       -1.9806520602        2.1151665549
 Na       -9.4669817812        4.8968447621       -1.9640046180
