117

 C       -11.7446135864       -2.9199872743        1.9514875568
 C       -11.4293199947       -1.4367211895        1.6975632695
 O       -10.2809168632       -1.1332851232        1.3403495002
 C       -12.4766621487       -0.3295983176        1.8502124143
 C       -11.6733180303        0.7368435794        2.7413699060
 O       -11.1066996457        1.7171191040        2.2401297888
 C       -11.5388051816        0.3577489064        4.2789608520
 C       -10.9326015932        1.4940713644        5.1415382953
 C       -11.8974698457        2.6104056618        5.4857694795
 O       -13.0978548901        2.3966817371        5.4192083566
 C       -11.3075286936        4.0798593673        5.8256711512
 C       -11.2557011022        4.8430299611        4.4669782600
 O       -10.2332930997        4.9974939954        3.8236447921
 C       -12.6632487119        5.2145569667        3.9106882358
 C       -12.6115717584        5.5913497874        2.4117031887
 C       -12.3876004065        7.1342487015        2.2028184623
 O       -12.6444252014        7.9069005397        3.1197764113
 C       -12.1391697731        7.5525773098        0.7547837494
 C       -11.0044450688        6.7941003773        0.1313435694
 O       -11.1695964805        5.8762847189       -0.6898754999
 C        -9.5293515435        7.0309725887        0.5522143723
 C        -8.9060807016        5.7680240059        1.1927235279
 C        -7.5845518373        5.3427014363        0.5746906752
 O        -6.9613478110        5.9616750266       -0.2423321020
 C        -6.9992136547        3.8942974122        0.9411582882
 C        -7.7718743914        2.8438885562        0.0576068539
 O        -8.5382760607        3.1355030584       -0.8327593126
 C        -7.5308410308        1.3407228270        0.4027271754
 C        -8.1254163107        0.4294807313       -0.7100087606
 C        -7.7349669974        0.8081870581       -2.1295352382
 O        -6.5812740032        0.8822783749       -2.5620941771
 C        -8.8674844292        0.9879255030       -3.1990118483
 C        -8.7028625844        2.5226116279       -3.7308513983
 O        -9.5513074120        3.3349440481       -3.4463983216
 C        -7.4088495789        2.9249408652       -4.5719455703
 C        -6.7833364889        4.2644827674       -3.9345923467
 C        -7.4369998305        5.5462192608       -4.4125453260
 O        -8.4018588718        6.0911303698       -3.8217155995
 C        -6.7738775877        6.3216539846       -5.5860198600
 C        -6.0810434943        5.4843342033       -6.6465225863
 O        -6.4763791532        4.3950805785       -7.0004151219
 C        -4.9431422272        6.1806747122       -7.3440237460
 C        -7.8247179117        7.1725751037       -6.3602402640
 C        -5.8414617793        7.3673139460       -5.0161760879
 C        -8.6944960419        0.0813763307       -4.3491448574
 C       -10.2887598881        0.8932442472       -2.6250577144
 C        -5.5274832743        3.7081502116        0.5401208373
 C        -7.0708489194        3.6283464055        2.4867475850
 C       -13.4216753446        7.3813519191       -0.1522838465
 C       -11.7403159945        9.0535820166        0.7901447881
 C       -12.1582044853        4.8931892462        6.8811016065
 C        -9.8782515320        3.9687827767        6.4077101182
 C       -12.7896977180        0.4398184406        0.5195861570
 C       -13.8187588561       -0.7102717484        2.5808490749
 H       -10.7945973714       -3.3729033256        2.2096804543
 H       -12.0942087200       -3.3734681757        1.0243758779
 H       -12.4978563039       -3.0208809150        2.8262274964
 H       -10.8450445122       -0.5547941503        4.2810661673
 H       -12.5615374164        0.0619253620        4.6034145586
 H       -10.0468204273        1.8963308707        4.5741090232
 H       -10.6040439162        0.9784565783        6.0740563466
 H       -12.9600914909        6.1418461505        4.3802493594
 H       -13.3681490675        4.4362879460        4.1075614236
 H       -13.5271093107        5.4017045150        1.9419249953
 H       -11.9667307529        5.0724247534        1.6884952522
 H        -9.3755435668        7.9115214305        1.2955589013
 H        -8.9889848113        7.3649516511       -0.3247412923
 H        -9.5819100418        4.9117456283        1.1125157897
 H        -8.8050962211        5.8248730589        2.2304442680
 H        -7.8087547266        0.8579418983        1.3692086743
 H        -6.3867746239        1.2668634608        0.2873166969
 H        -9.2472282665        0.3699440161       -0.7294155762
 H        -7.7990288493       -0.6134929814       -0.4313279914
 H        -7.5634582628        3.0402448196       -5.6836365877
 H        -6.6844304123        2.1332471106       -4.5082655411
 H        -5.6603269555        4.3440423754       -4.2019434899
 H        -6.8921947980        4.1700995042       -2.8485621205
 H        -4.1178253812        6.6941079933       -6.7262355292
 H        -5.3963598180        6.9614493718       -7.9710497573
 H        -4.4191092975        5.5035786569       -8.0237269064
 H        -8.6517472239        6.5145602524       -6.6255394556
 H        -7.3657467219        7.7252030849       -7.1811788252
 H        -8.1267290157        7.8920143740       -5.6181632118
 H        -4.9695264548        6.8489531459       -4.5815121464
 H        -6.2612400578        8.0142663763       -4.2817076836
 H        -5.4836456006        7.9912798706       -5.8141515787
 H        -9.4520421932        0.2290788796       -5.1855886144
 H        -8.8673998866       -1.0019716701       -4.0031043686
 H        -7.7316659770       -0.0011988479       -4.8281689490
 H       -11.0662983740        0.8751527082       -3.4415484260
 H       -10.5318734862        1.6510409442       -1.8955889493
 H       -10.3775127356       -0.1136897417       -2.1260762502
 H        -5.0634215267        4.6174442789        0.7525748454
 H        -5.5054668610        3.5333049027       -0.5434207967
 H        -5.1165861069        2.8979124312        1.0933036663
 H        -6.5889818193        4.4787451414        2.9256255696
 H        -6.7121363596        2.6555070877        2.8156434819
 H        -8.0374577129        3.7423059535        2.9536371478
 H       -14.2540214748        8.0035164475        0.1841776628
 H       -13.7173019420        6.3699540218       -0.2889389576
 H       -13.2029141755        7.7627627738       -1.1436829804
 H       -10.7707616389        9.1888436362        1.4360006436
 H       -12.5251715170        9.6323652804        1.2748561277
 H       -11.4735261974        9.4481426338       -0.1900547914
 H       -12.1432211549        4.4563203188        7.8956431086
 H       -13.1410725172        5.1878368024        6.5481667777
 H       -11.6795454361        5.8290801085        7.1203539221
 H        -9.8735834905        3.6145559525        7.4604266604
 H        -9.4721693169        5.0166878168        6.5024900593
 H        -9.1856633407        3.3710433825        5.8407927730
 H       -13.2615482948       -0.2434150698       -0.1931878322
 H       -11.8767166135        0.7061534125        0.0247331896
 H       -13.3854958527        1.3037360225        0.7427588869
 H       -14.3279930822        0.0779566628        3.2351013276
 H       -13.6629903032       -1.5526260027        3.2809057156
 H       -14.5441361194       -1.0238032001        1.8198648667
 Na       -9.3485970108        5.1211834448       -1.9748169254
