117

 C       -11.9788411686       -2.7171117999        1.9367275070
 C       -11.5187914949       -1.2918893046        1.5240452226
 O       -10.5656460924       -1.0479371384        0.7957810181
 C       -12.5123123096       -0.0158168016        1.9373430037
 C       -11.6523040206        0.8434981915        2.8426135268
 O       -11.0828408431        1.8783070797        2.4757521273
 C       -11.3981610960        0.4557178261        4.3369867017
 C       -10.7178022623        1.5568054508        5.1016079902
 C       -11.7411639005        2.6147335887        5.4653559579
 O       -12.9457925612        2.3493121269        5.2934695214
 C       -11.3012309535        4.0673815789        5.7427111020
 C       -11.2004247085        4.8037128937        4.3749703027
 O       -10.1320549597        4.9531351776        3.7725584522
 C       -12.5694298994        5.0084533662        3.6262044847
 C       -12.5321212928        5.4973771614        2.2063651058
 C       -12.3542881514        7.0167657512        2.0532792699
 O       -12.5102636789        7.7383218798        3.0200812022
 C       -12.0411959668        7.5565414082        0.6106929259
 C       -10.8165233231        6.8174677835       -0.0127628981
 O       -11.0216409453        6.0305486926       -0.9145431794
 C        -9.4147557614        7.1618624223        0.6489708235
 C        -8.7884712049        5.9336269194        1.3173261100
 C        -7.5849486745        5.3651654204        0.5837944848
 O        -7.1745819095        5.8591651885       -0.4692725525
 C        -6.9119211789        3.9641164546        1.0032080869
 C        -7.6879140984        2.8836258385        0.1294597211
 O        -8.5142480323        3.1903483179       -0.7138295068
 C        -7.3448090908        1.4203173065        0.4194343702
 C        -8.3058782139        0.5593847442       -0.4337885624
 C        -7.9888990838        0.6566277318       -1.9048620634
 O        -6.8457777998        0.7416601550       -2.2682388555
 C        -9.0027723936        0.9375759373       -3.1186405536
 C        -8.8508678207        2.4237608398       -3.3491254801
 O        -9.7667811483        3.1869609630       -3.0600785820
 C        -7.6121503048        2.9172725179       -4.1578395274
 C        -6.9151406882        4.2669047912       -3.8756123136
 C        -7.4810457262        5.5827804557       -4.4588533469
 O        -8.3609113228        6.1891372274       -3.8355336779
 C        -6.8603261792        6.3033066848       -5.6785053748
 C        -6.1121216846        5.2501942799       -6.5829166318
 O        -6.4971884643        4.0974456335       -6.6473767916
 C        -5.0798540271        5.7088586266       -7.6012206543
 C        -7.9464457451        6.9819945937       -6.5176477284
 C        -5.8317219740        7.3678618666       -5.1550174769
 C        -8.5143171823        0.0749104325       -4.2946832909
 C       -10.4448999112        0.5765825093       -2.7679024192
 C        -5.3707305581        4.1341384521        0.7178684579
 C        -7.1096255707        3.7228805826        2.4823464038
 C       -13.1996592839        7.3620903337       -0.3318188980
 C       -11.7222227652        9.0672553277        0.7230683220
 C       -12.3568222415        4.7026013464        6.7793265653
 C        -9.8452439055        4.0953597137        6.3127969061
 C       -12.8251989351        0.6598312628        0.5665465137
 C       -13.8039548854       -0.5847237724        2.6126125230
 H       -11.2608627951       -3.4538973375        1.7392920827
 H       -12.8076774115       -2.9102806004        1.3018266429
 H       -12.2908957494       -2.6522590856        2.9928524898
 H       -10.8773544224       -0.5288359138        4.3113359963
 H       -12.3341075387        0.2880586974        4.7496456949
 H        -9.9151484664        1.9473173530        4.6152865834
 H       -10.4344429458        1.0626393096        6.0351261435
 H       -13.0858615206        5.7921703152        4.2604318881
 H       -13.1855642048        4.0486001149        3.6989201163
 H       -13.4585341205        5.2760509222        1.5822575577
 H       -11.8532717830        4.9461133968        1.5006508195
 H        -9.4548141271        8.0088069066        1.3501257685
 H        -8.8113074926        7.5006606683       -0.2045400756
 H        -9.5378004729        5.1028000311        1.5152694675
 H        -8.4281448090        6.1028848340        2.3270725307
 H        -7.3662448963        1.1871171994        1.4731452581
 H        -6.3650252325        1.1366311709        0.0086514157
 H        -9.3738833949        0.7271773351       -0.2500602275
 H        -8.2016559138       -0.4866775273       -0.3190957872
 H        -7.9050043195        2.8624347554       -5.2308169807
 H        -6.8263395183        2.1566101050       -4.1497692253
 H        -5.8962449192        4.1385449825       -4.1300972903
 H        -6.9267476628        4.4591015830       -2.8213690402
 H        -4.4668125917        6.6230810715       -7.4031973849
 H        -5.6180486718        5.8507420299       -8.4837666198
 H        -4.3958539116        4.9461221962       -7.8041112628
 H        -8.3190630499        6.2174977110       -7.2277070142
 H        -7.5337466078        7.8594491571       -6.9749288643
 H        -8.7936854705        7.1790522894       -5.8631972274
 H        -4.7890247810        7.0426343464       -5.0444084405
 H        -6.1632762261        7.7859022637       -4.2103392521
 H        -5.9021978093        8.2683790818       -5.7766603240
 H        -9.1964046420        0.1780710168       -5.1253635941
 H        -8.4402772510       -0.9646498150       -4.0145847379
 H        -7.6075057935        0.3536648603       -4.7211818467
 H       -11.1169849695        0.7396538983       -3.5839878568
 H       -10.7302724475        1.2313045525       -2.0311027681
 H       -10.6105166132       -0.4598295866       -2.4800299868
 H        -4.9541892632        4.6438866682        1.6039953609
 H        -5.0780410353        4.6231749149       -0.2602387666
 H        -5.0696482117        3.0660771533        0.8033178368
 H        -6.7268082050        4.5148081691        3.0613461281
 H        -6.6719344901        2.7496876401        2.7910207427
 H        -8.1534668388        3.6091925513        2.8218904373
 H       -13.8005975982        8.3009696551       -0.2651550337
 H       -13.8243288398        6.4881351527       -0.0835473324
 H       -12.9641173452        7.1952618045       -1.3863903965
 H       -11.5786701832        9.4394239659        1.7736496588
 H       -12.5553951107        9.5540071550        0.2555434175
 H       -10.8432457113        9.2508544175        0.1814594616
 H       -12.0088395845        4.3452406563        7.7286615435
 H       -13.3646145359        4.5020380411        6.5172545039
 H       -12.3589741042        5.7875058287        6.9150875475
 H        -9.6823649663        3.4664113773        7.1635013421
 H        -9.7006884870        5.1378419889        6.6665975252
 H        -9.1463134066        3.8626547167        5.5934955632
 H       -13.3766992809       -0.0520028284       -0.0602878407
 H       -11.9011174294        0.8723550014        0.0084250582
 H       -13.4243088445        1.5447618463        0.7402178895
 H       -14.4977587746        0.2462375622        2.5886435834
 H       -13.6724224444       -0.8696187865        3.6247514175
 H       -14.2831352353       -1.3578800359        2.0734868311
 Na       -9.0470138679        5.1612660966       -1.8529398468
