117

 C        -9.6238975643       11.2619546748       -3.7128255648
 C        -8.3526649943       10.4351346676       -3.6558794871
 O        -8.3766410329        9.2437704453       -3.5749895568
 C        -6.9408418327       11.1451331059       -3.7221256612
 C        -6.4335024693       11.5197667807       -2.3012124814
 O        -6.4610644228       12.7210152053       -2.0227538235
 C        -5.5143271158       10.4629365637       -1.5842353495
 C        -6.4483607823        9.3738502746       -0.8483687889
 C        -5.6265943356        8.0745370851       -0.4111400210
 O        -4.9719173475        7.4783062261       -1.2035527569
 C        -5.6840340161        7.6448057965        1.1397269950
 C        -7.2100319221        7.0471252319        1.3844699856
 O        -7.7076171715        7.3158139168        2.4338380568
 C        -8.1216214470        6.3019514934        0.3016720874
 C        -9.5940079806        6.6036550454        0.5828876912
 C       -10.3827184490        5.3483305137        0.1924489619
 O       -10.0627769867        4.3253967070        0.7065084280
 C       -11.6674778697        5.3363249406       -0.8634311795
 C       -12.7097609022        4.2951030582       -0.3978762583
 O       -12.4326348228        3.0936636865       -0.4688328899
 C       -13.9683769145        4.5385209426        0.4716022040
 C       -14.6674038559        3.2283650804        1.0217196081
 C       -13.8447224701        2.2900189659        2.0267540047
 O       -12.7435415026        2.6996606701        2.3141644968
 C       -14.3036097303        0.9104603433        2.6249152280
 C       -13.1768845844       -0.1388610273        2.3652147305
 O       -12.1025518146        0.1525985989        1.8934410601
 C       -13.4768649200       -1.6903354998        2.5950744478
 C       -12.5247168350       -2.6197774206        1.7952957869
 C       -12.9276011548       -2.5384245496        0.3082009770
 O       -13.6365941412       -1.6527926390       -0.1991037092
 C       -11.8554305417       -3.5272639243       -0.6075540577
 C       -10.3908874352       -3.1014341505       -0.2820879566
 O        -9.7487975270       -3.2993721138        0.7952039495
 C        -9.6696846795       -2.4639095998       -1.4388844478
 C        -8.3647359927       -1.7239522294       -1.0041562703
 C        -8.6148771797       -0.1811862137       -0.4923083657
 O        -9.5148037347        0.5206830222       -0.8533041436
 C        -7.4430518324        0.6023061228        0.2999540085
 C        -7.8673240590        0.8479136519        1.7846100961
 O        -9.0656118096        1.1526344621        2.0895676189
 C        -6.8682880175        0.4849562746        2.8986656594
 C        -6.0674514116       -0.1108109652        0.2054627103
 C        -7.4313452604        2.0434282605       -0.4274092771
 C       -12.1797245968       -5.0212917397       -0.1131600728
 C       -12.2976691195       -3.4901255938       -2.1393058031
 C       -14.4767698242        1.2038029336        4.1541141158
 C       -15.6285981685        0.4812761599        1.9894729370
 C       -12.2215124231        6.7013067452       -0.8904935568
 C       -10.9682784258        4.9256902367       -2.2471760415
 C        -4.7071144889        6.4465456818        1.3797805396
 C        -5.5393824333        8.7313666627        2.2783016818
 C        -6.0513948555       10.0745700321       -4.3672285520
 C        -6.9150139815       12.3803629583       -4.5330712871
 H        -9.4964790849       11.8922289864       -4.5606200701
 H        -9.7153121111       11.6470230825       -2.7309446166
 H       -10.5129939457       10.6205772955       -3.8143027047
 H        -5.0172784351       10.8567821920       -0.6591378884
 H        -4.9211233390        9.8963329089       -2.2038031963
 H        -7.2189620827        9.1055700995       -1.5810025874
 H        -6.9856409572        9.7465306046        0.0533708819
 H        -7.9876361961        5.1778001297        0.3954547914
 H        -7.8745235025        6.5863767689       -0.7362255448
 H        -9.9560924469        7.4848778609        0.0659090888
 H        -9.7093698566        6.8294162240        1.7330668045
 H       -14.8317232979        4.9374063879       -0.1482572451
 H       -13.8466492102        5.3074361398        1.2731805804
 H       -15.1788291227        2.6824435338        0.2663266665
 H       -15.5684517789        3.6297182727        1.6038103672
 H       -14.5465552379       -1.8726021667        2.4330602215
 H       -13.2137603628       -1.8727841837        3.6338119645
 H       -12.5035127471       -3.7143163012        2.1405591340
 H       -11.4995576197       -2.3319652418        2.1266117918
 H       -10.3231395259       -1.8021933025       -2.0530512988
 H        -9.3629371988       -3.2270280553       -2.1586024580
 H        -7.8039767905       -1.5769975889       -1.9197242166
 H        -7.7758381073       -2.1216496089       -0.2478210082
 H        -6.7402290729       -0.5558801793        2.9324574581
 H        -7.3173029881        0.8266086981        3.9502034530
 H        -5.9085838599        0.9389542959        2.9123212061
 H        -5.7347649441       -0.1887026959       -0.8945767650
 H        -5.9190851450       -0.9999341688        0.6802748819
 H        -5.2957866387        0.5415680041        0.5503923536
 H        -8.3874843736        2.4898162111       -0.3315442618
 H        -7.1086580602        2.0128460523       -1.5210401973
 H        -6.6538116501        2.5964524873        0.0645362978
 H       -12.4355418812       -5.6279842509       -0.9885410423
 H       -12.9739543398       -5.0588122256        0.6598942948
 H       -11.2485338606       -5.3661255915        0.3330055438
 H       -12.2325030344       -2.4800201673       -2.5518497073
 H       -13.4098960677       -3.7023747871       -2.0861485057
 H       -11.8652131442       -4.3751724298       -2.6199577677
 H       -15.4075177754        1.7152713505        4.3741528410
 H       -13.6384292776        1.7700883253        4.5731986572
 H       -14.6101270209        0.2549760738        4.6508824626
 H       -16.3512578389        1.2316550908        2.2658710124
 H       -15.8662338615       -0.4931663264        2.3425381896
 H       -15.5959622524        0.5615037923        0.9297474648
 H       -13.0302609895        6.9682818118       -1.5807856818
 H       -11.4311166043        7.3567259228       -1.1152259727
 H       -12.6408400092        7.0036728575        0.1393080334
 H       -10.7260996726        3.8513151754       -2.2660600484
 H        -9.9774233221        5.4295241004       -2.2085896012
 H       -11.5853834521        5.3006918845       -3.0460892358
 H        -3.7125341556        6.8527710442        1.5466535668
 H        -4.6586479018        5.8360185147        0.4675557428
 H        -5.0007960600        5.8862304948        2.2760619914
 H        -6.1817304602        9.6190871400        2.1385274548
 H        -4.5082118431        9.1766660677        2.3109982848
 H        -5.6404179894        8.3327981995        3.2804600348
 H        -5.8725299268        9.1708839060       -3.7665192483
 H        -5.0296968227       10.3052062878       -4.4263635014
 H        -6.4569020282        9.8124341688       -5.3215249852
 H        -7.0906735953       12.2071014587       -5.5563071179
 H        -6.0047837206       12.9241956621       -4.3472376082
 H        -7.6699943894       13.1082020286       -4.1862213357
 Na      -10.9654668968        2.0427808189        0.6298018899
