117

 C       -11.9638433972       -2.2925279929        2.0269532467
 C       -11.8318281378       -0.9602002064        1.3072227023
 O       -11.2047221508       -0.8848592413        0.2590612798
 C       -12.6185418188        0.2726235616        1.9208012032
 C       -11.5386387220        1.0840447245        2.7879860847
 O       -11.1889586308        2.1937123371        2.5067708000
 C       -10.9057041447        0.3659097266        4.0815390430
 C       -10.5654267760        1.4246818611        5.1047164616
 C       -11.6201093840        2.3976633036        5.3047606225
 O       -12.8356217491        2.0893236371        5.2744930620
 C       -11.3172095295        3.8761296575        5.5477822977
 C       -11.3035502161        4.5919688190        4.1456319170
 O       -10.2520893080        4.9824014792        3.5922809037
 C       -12.6650042913        4.7930947066        3.3787330752
 C       -12.5104430194        5.4258614378        1.9796666649
 C       -12.0454158172        6.9602498994        1.9860434294
 O       -11.9876626001        7.5966678382        2.9998255011
 C       -11.8861162692        7.6925970423        0.5144048417
 C       -10.5267918811        7.2369205938        0.0302941211
 O       -10.4617423969        6.4447346528       -0.8815041692
 C        -9.2355184836        7.6260668167        0.7416325000
 C        -8.5331536200        6.4888164568        1.5866089820
 C        -7.4602031905        5.6671584725        0.7529022673
 O        -7.0645710214        6.0719350880       -0.3398195196
 C        -7.0096250882        4.1852270183        1.1864038144
 C        -7.7178840364        3.0573565856        0.3123104925
 O        -8.2654202771        3.3953119154       -0.7673728877
 C        -7.5890365953        1.6235783498        0.8066573467
 C        -8.3199659989        0.5767158705       -0.0947898259
 C        -7.8854144468        0.6836782983       -1.6580045356
 O        -6.7282089268        0.5262252254       -1.9584333424
 C        -8.9764273552        0.8370752930       -2.7934738635
 C        -8.7603697996        2.4145684638       -3.2338767786
 O        -9.7456529687        3.1464611658       -3.1275412497
 C        -7.3562622080        2.7510315284       -3.7908098638
 C        -6.9917744707        4.2446863467       -3.7413959998
 C        -7.7368014756        5.2796009575       -4.5888850885
 O        -8.7428368972        5.7776842688       -4.1860162198
 C        -7.0338486030        5.7806759366       -5.9019960906
 C        -6.3595024213        4.6557065139       -6.7660617338
 O        -6.3136433840        3.4980098085       -6.4102122801
 C        -5.6155873615        5.1083140550       -8.0119672853
 C        -8.0201378990        6.6157837792       -6.7395701401
 C        -5.8650472293        6.6753929540       -5.3500836121
 C        -8.5459268926       -0.1111865612       -3.9218142312
 C       -10.4778041510        0.5846991160       -2.3607383048
 C        -5.5179091534        3.9545152763        0.7263212195
 C        -7.2003201306        3.9605112138        2.7051627968
 C       -12.9326722857        7.2844997591       -0.4433341462
 C       -12.0226650265        9.2739093728        0.6940384132
 C       -12.4857265885        4.5823743931        6.3400939812
 C        -9.9885338238        4.1124961282        6.2309726762
 C       -13.0570596573        1.2614043892        0.7446046249
 C       -13.8450951218       -0.0493602531        2.8215865129
 H       -11.2552955765       -3.0691345946        1.7240039173
 H       -13.0165468453       -2.5599942765        1.7834036899
 H       -11.8847893550       -2.1637776266        3.0486323686
 H       -10.0537718738       -0.2157878401        3.8280145286
 H       -11.6340655906       -0.4705874822        4.3415137662
 H        -9.6776666950        1.9745723361        4.7228005299
 H       -10.1961229888        0.9236176362        6.0192787205
 H       -13.3497163908        5.5213968295        3.9137079047
 H       -13.2075597993        3.8298170395        3.3526923524
 H       -13.4926985171        5.2950067065        1.4876063798
 H       -11.8472083661        4.7880509854        1.3800587599
 H        -9.5545624503        8.2988438433        1.4905290954
 H        -8.4857876405        8.0673780768       -0.0185485072
 H        -9.2882956177        5.9115238267        2.0008347948
 H        -7.9862171168        7.0313803368        2.3840254088
 H        -8.1757297281        1.4865206042        1.7648751319
 H        -6.5607915044        1.2327141204        0.9177424484
 H        -9.3948386152        0.7211111679        0.1280849942
 H        -8.1407784484       -0.3389563575        0.5282184648
 H        -7.2589165925        2.2513171166       -4.7678793183
 H        -6.6131956830        2.1919984552       -3.1496028676
 H        -5.9379410748        4.3677747377       -3.9934724954
 H        -7.0728459913        4.6206383997       -2.6613698982
 H        -5.2273520380        6.1006188920       -7.8246656523
 H        -6.1738029758        5.0801897464       -8.9571241281
 H        -4.8049575346        4.4299998072       -8.2019216341
 H        -8.5723109328        5.8788587389       -7.3278315311
 H        -7.5316816289        7.2713002005       -7.4610514456
 H        -8.7269705800        7.1046668030       -6.0394397962
 H        -4.9844504323        6.1328633217       -5.0870489056
 H        -6.1311751027        7.3180313258       -4.4967524804
 H        -5.5250587445        7.3303963207       -6.1514340969
 H        -9.3498269028       -0.1707267073       -4.6459896884
 H        -8.4096143803       -1.1115434096       -3.5476176930
 H        -7.5821561289        0.2315521974       -4.3964576579
 H       -11.0483635651        0.8520217164       -3.1954746704
 H       -10.8980355056        1.1073486953       -1.5293525800
 H       -10.6278966934       -0.4611516278       -2.2801234222
 H        -4.9484470690        4.8030476975        1.2174317078
 H        -5.4919460334        4.1039431758       -0.3354165654
 H        -5.0824514695        2.9666780542        1.0339878693
 H        -6.5226968268        4.5617301424        3.2889692736
 H        -6.9119729342        3.0466477603        3.1082620688
 H        -8.2191263275        4.1765785960        2.9305398056
 H       -13.8757685760        7.6848905474       -0.0885159124
 H       -13.1127734796        6.1877100420       -0.3587804484
 H       -12.6076551703        7.5495308850       -1.4555068562
 H       -11.0905129229        9.7223338065        0.7060429990
 H       -12.4509349285        9.4105801228        1.7207948765
 H       -12.8090304701        9.5902049786       -0.0378279062
 H       -12.5868866403        4.2524239147        7.3172119453
 H       -13.4527209049        4.3409855093        5.9540070462
 H       -12.2786270525        5.6240550122        6.2203295984
 H       -10.0699516132        3.6410815682        7.1659437948
 H        -9.8584831345        5.1525284866        6.3187229559
 H        -9.1429711004        3.7172710281        5.6746589243
 H       -13.9071896218        0.8885437066        0.2181328369
 H       -12.1585282388        1.4224830613        0.1497601201
 H       -13.3485660659        2.2398733894        1.1394662681
 H       -14.2698121379        0.8410959650        3.1414509499
 H       -13.5541427616       -0.6597325354        3.6552482496
 H       -14.5072775886       -0.6424935836        2.2092902616
 Na       -9.0857928588        5.2009200855       -1.9571803954
