117

 C       -12.0755194488       -2.1473757077        2.0105039717
 C       -11.9826244030       -0.8226977548        1.3317761306
 O       -11.3659454571       -0.6330872193        0.3208117493
 C       -12.7500683565        0.4841192849        2.0032357911
 C       -11.5943925447        1.1629100590        2.6933082910
 O       -11.0444553923        2.1283960209        2.2230459086
 C       -10.9376946778        0.5561086222        3.9641442652
 C       -10.4534303949        1.5786250821        4.8914334777
 C       -11.6386826503        2.3550087342        5.2347412505
 O       -12.8128349152        1.9734210806        5.1349494455
 C       -11.3907724168        3.9355679891        5.5664522287
 C       -11.3639076588        4.5130947074        4.1619134067
 O       -10.2475401090        4.6744642324        3.6343736432
 C       -12.6401492464        4.8668403678        3.4103186965
 C       -12.4610753981        5.4561004741        2.0184682431
 C       -11.9561068583        6.9203079237        2.0844622524
 O       -11.8061377565        7.4541190325        3.1443232667
 C       -11.8040521110        7.7696196350        0.6270386123
 C       -10.3941809288        7.2212611969        0.0580358896
 O       -10.4969276589        6.4029050233       -0.8733810386
 C        -9.1646177751        7.7047743243        0.7925805638
 C        -8.4652535141        6.5671104585        1.5149275996
 C        -7.7114320714        5.6686704682        0.5389202836
 O        -7.4949440072        5.9699169701       -0.6227071243
 C        -7.0369252308        4.3519802811        1.1460230129
 C        -7.7394066027        3.1258406448        0.4252227710
 O        -8.4432285018        3.3021827251       -0.6113122490
 C        -7.6658884595        1.7389799562        0.9575931549
 C        -8.6115911616        0.7809903125        0.0620073007
 C        -7.9587549039        0.6849771003       -1.3176817398
 O        -6.7314611670        0.6515782352       -1.3535894893
 C        -8.9023919964        0.8723779173       -2.6076310226
 C        -8.6264524968        2.3032262048       -3.2453249005
 O        -9.4533299322        3.1534304273       -3.0818391937
 C        -7.2952944461        2.5945020002       -3.9226453640
 C        -6.7215079118        3.9633452161       -3.9108236586
 C        -7.5359150647        5.0635073418       -4.7053502589
 O        -8.6044500786        5.4477487078       -4.3306680902
 C        -6.9326359937        5.6179196368       -5.9973297862
 C        -6.3274420901        4.4809200352       -6.9152307472
 O        -6.3078367074        3.3220686690       -6.5656772999
 C        -5.9853880445        4.8402917203       -8.2832281715
 C        -7.9886880164        6.4189914727       -6.8813006637
 C        -5.8393510819        6.5777070233       -5.6479119897
 C        -8.4491667315       -0.2034932049       -3.6492166485
 C       -10.4355877423        0.7189643896       -2.3326801537
 C        -5.5068719794        4.3969883942        0.8844326761
 C        -7.3462194866        4.2428117531        2.6073217209
 C       -12.9849767095        7.4314377514       -0.3569197623
 C       -11.7048369405        9.2358878032        1.0210953753
 C       -12.5907486998        4.3839579139        6.4365982745
 C       -10.0676222038        4.2183679101        6.2616175701
 C       -13.1855925345        1.3841242241        0.8021208258
 C       -13.9194959024        0.0670551470        2.8987030890
 H       -11.1464727866       -2.7716449047        1.8201084845
 H       -12.9717232022       -2.6827258248        1.6222887202
 H       -12.1579247680       -2.0264615492        3.0507035244
 H       -10.2219796182       -0.1504525145        3.6359394815
 H       -11.6976282465       -0.1035723731        4.4277455005
 H        -9.7968180869        2.3413415623        4.4515219501
 H        -9.9296265662        1.2013220738        5.6814158801
 H       -13.2187277071        5.5807515638        4.0590138706
 H       -13.2541189351        3.9668441706        3.3882728026
 H       -13.4647230689        5.5180549431        1.5831852927
 H       -11.8278463838        4.6308757768        1.5126775935
 H        -9.5380937331        8.3895128831        1.5706510927
 H        -8.5039638425        8.1739585040        0.0726184002
 H        -9.2719118726        6.0193253577        2.0658915551
 H        -7.7076362322        7.0040219539        2.1936367480
 H        -8.1359537701        1.8359768648        1.9114145533
 H        -6.6796774106        1.3565460501        1.0138391006
 H        -9.5406556088        1.1998834236        0.2897583621
 H        -8.6725296053       -0.2382521048        0.4107806205
 H        -7.3116072308        2.3003413381       -4.9872710055
 H        -6.5983569482        1.9372641979       -3.4414562421
 H        -5.7602286625        3.8908417947       -4.3415271146
 H        -6.5721143413        4.3944304696       -2.9635326408
 H        -5.8757865391        5.8673115382       -8.4371066846
 H        -6.8372952013        4.5070163979       -8.9150076222
 H        -5.1531664633        4.2427759630       -8.6667305673
 H        -8.3575318394        5.9410745624       -7.7559463016
 H        -7.5387052614        7.3814077492       -7.1680194525
 H        -8.7510849885        6.6795293439       -6.1528793063
 H        -5.0420303375        6.1750412885       -5.0062549396
 H        -6.2140209779        7.4683847133       -5.1106549272
 H        -5.3312823817        6.9445047520       -6.5381740957
 H        -8.9384750696       -0.0799374326       -4.5803419021
 H        -8.7603905163       -1.1725890761       -3.3344137838
 H        -7.3395311109       -0.1940780239       -3.6756812875
 H       -10.9255990490        0.5765153905       -3.3278143834
 H       -10.8290603544        1.7169763501       -1.8928903020
 H       -10.6766953336       -0.0327599031       -1.5777211090
 H        -4.9552517652        5.0951684501        1.5492440562
 H        -5.2302983424        4.5652682222       -0.1352298665
 H        -5.2113331383        3.3674743798        1.1272022540
 H        -7.0810259068        5.1489398920        3.2778897831
 H        -6.7105065621        3.3768796596        2.9635192620
 H        -8.4010195797        3.9772161803        2.8325032941
 H       -13.8985965992        7.4753459407        0.1751212556
 H       -12.8644213590        6.4277191169       -0.7398682802
 H       -12.9560080577        8.1623824871       -1.1595825360
 H       -10.9728650603        9.6358454717        0.3910031887
 H       -11.3037082164        9.2709411916        2.0009164304
 H       -12.7100348699        9.6928012627        0.9679953281
 H       -12.4480569951        4.1427132114        7.5275191545
 H       -13.4290908403        3.6640073006        6.1787375660
 H       -12.7771084422        5.4809585844        6.3976039948
 H        -9.8448425043        3.5024287995        7.0767806592
 H       -10.1766365175        5.2056326078        6.6558479951
 H        -9.2994388680        4.3159766385        5.4100562036
 H       -13.8840161442        0.8009710509        0.2030165064
 H       -12.2739549265        1.6303122395        0.2730331587
 H       -13.6198146865        2.3479300194        1.1021146597
 H       -14.2575101528        0.9883598941        3.3661936641
 H       -13.5460164669       -0.5580833786        3.7487385709
 H       -14.7025584983       -0.4371191827        2.2885695555
 Na       -8.8633762874        5.1622475631       -2.1510593766
