117

 C       -12.4682190254       -2.1690389218        1.8792809076
 C       -12.1621277963       -0.8378586579        1.2549776010
 O       -11.4563643156       -0.7758079691        0.3023710162
 C       -12.7598219340        0.4686511223        1.9038224153
 C       -11.4956773592        1.1755456384        2.5172595148
 O       -11.0250436875        2.1339935973        1.9486657756
 C       -10.7795613425        0.6367728368        3.7788200954
 C       -10.4223225379        1.6552284473        4.8009642908
 C       -11.7086146979        2.4288902115        5.2345948884
 O       -12.7984211610        1.9573015503        5.3160793363
 C       -11.4832085052        3.9997993243        5.5918706578
 C       -11.3893334109        4.6194265805        4.1656477793
 O       -10.3161957045        4.8048865057        3.6033526119
 C       -12.7513416844        4.9950124491        3.5132117862
 C       -12.4948473188        5.5897068403        2.0596004749
 C       -11.8685907168        6.9490960416        2.1733921097
 O       -11.4754262928        7.3746237054        3.2074185617
 C       -11.8696038392        7.8861556511        0.8064752037
 C       -10.5209836154        7.3808644078        0.1006797180
 O       -10.6946737921        6.4325597341       -0.7142007983
 C        -9.1732102405        7.7843534346        0.5541858090
 C        -8.4017661728        6.7919223310        1.5194522868
 C        -7.6125641804        5.7224731940        0.7571266922
 O        -7.3646354482        5.9533442126       -0.4409125567
 C        -7.0518832900        4.3927875468        1.3354690710
 C        -7.9160514364        3.2227705249        0.5997011935
 O        -8.3632428126        3.4871336553       -0.5305165693
 C        -7.9689942207        1.8806659335        1.1584014692
 C        -8.6877055956        0.9221890693        0.1791477415
 C        -7.9489431370        0.8957470265       -1.1944680500
 O        -6.7190567876        0.8153862681       -1.1434076647
 C        -8.7766871067        0.7571396393       -2.5858937709
 C        -8.5178367046        2.2051445873       -3.2559227047
 O        -9.3384800438        3.0741459284       -3.1657410184
 C        -7.1664464606        2.4119504166       -3.9386441201
 C        -6.6077975451        3.7977841540       -3.9397470745
 C        -7.3837904374        4.8559070561       -4.8102008945
 O        -8.2049281107        5.5810333351       -4.2969954616
 C        -6.9240231302        5.3168676395       -6.3080273395
 C        -6.3765019790        4.1865703300       -7.3674764813
 O        -6.0998943974        3.0707064882       -6.9923606988
 C        -6.1508485092        4.5966589738       -8.8569859748
 C        -8.0203722522        6.2351988167       -6.9005136200
 C        -5.6379712570        6.2405676121       -6.0498297207
 C        -8.2413925414       -0.5059933873       -3.3537975982
 C       -10.3833492340        0.6395224572       -2.3946120898
 C        -5.6002937643        4.2438602109        0.7729196096
 C        -7.0099333284        4.3554447587        2.8619292144
 C       -13.0692469865        7.4725015169       -0.1357096387
 C       -11.7862618080        9.3116777159        1.2329800296
 C       -12.6684634011        4.6087398408        6.4510700506
 C       -10.2254343743        4.2592139509        6.5275288054
 C       -13.3650052953        1.3451205955        0.8317800573
 C       -13.8236604357        0.1539547460        2.9883902098
 H       -11.9498784613       -2.9993727683        1.3107469436
 H       -13.5353058453       -2.3501156232        1.9969724656
 H       -12.0429341746       -2.1335941252        2.8826114612
 H        -9.8047720659        0.2257494903        3.3126316529
 H       -11.3872238496       -0.1835134790        4.1452176148
 H        -9.6749082283        2.4564648960        4.4229534761
 H        -9.8951706334        1.2214418227        5.6700776961
 H       -13.3453378281        5.6748454911        4.0636908506
 H       -13.3592575176        4.1116924597        3.5273441013
 H       -13.4326259678        5.6244025994        1.6092011878
 H       -11.7867291826        4.9318508325        1.5660145863
 H        -9.2483708683        8.7880074655        1.0886702081
 H        -8.4896950102        7.9004194284       -0.2381276624
 H        -9.1146479122        6.2627859034        2.2104567870
 H        -7.7919742647        7.4321012150        2.0901458869
 H        -8.4293497783        2.0224672122        2.1625026587
 H        -6.9461395893        1.4089614651        1.2549766862
 H        -9.7117987066        1.3324924574        0.0951992366
 H        -8.7877400412       -0.0929989845        0.6199935596
 H        -7.4090512300        2.0405362398       -4.9725233330
 H        -6.3962864229        1.7905311316       -3.5189327506
 H        -5.5371029623        3.7784736584       -4.3906820440
 H        -6.4873368098        4.1641783406       -2.8952843766
 H        -5.7919167011        5.5923210480       -8.9141324974
 H        -7.0845065873        4.6287821512       -9.4678144986
 H        -5.4240843462        3.8888486101       -9.3691797420
 H        -8.9458029813        5.6959699418       -6.7404036501
 H        -7.9113422136        6.2452976632       -8.0190604336
 H        -8.0395762645        7.2774308561       -6.5828583672
 H        -5.0722668327        5.9069545415       -5.1718485174
 H        -5.9107904770        7.2455864401       -5.8035962695
 H        -4.9476939452        6.3323417067       -6.8527756232
 H        -8.3616184074       -0.2459948090       -4.4206171756
 H        -8.9144585554       -1.3692043847       -3.1237077471
 H        -7.1895675832       -0.7109796541       -2.9847462527
 H       -10.7761378095        0.8706908872       -3.3516163967
 H       -10.7280913217        1.3494909183       -1.6468000941
 H       -10.6552670069       -0.2719464386       -2.0077219419
 H        -5.0258443437        5.1163468977        1.0756366423
 H        -5.6889045850        4.2843682488       -0.3193755636
 H        -5.0998449482        3.3103676855        1.0467362345
 H        -6.6467712805        5.3301423320        3.1627435334
 H        -6.5261418573        3.4870422945        3.1940135672
 H        -7.9487122538        4.3720654797        3.3033628915
 H       -14.0555541089        7.3951069244        0.3562613911
 H       -12.6939978858        6.5364006064       -0.5479207248
 H       -13.2084394846        8.2207764491       -0.9568531803
 H       -11.9104739666        9.9846259655        0.3485840567
 H       -10.8506383126        9.4507177344        1.7994893143
 H       -12.6480954651        9.4662006898        1.9522939809
 H       -12.7726094122        4.0648324533        7.3793056554
 H       -13.5494725143        4.5765850510        5.8375545845
 H       -12.4215517855        5.5513937858        6.7863619967
 H       -10.5216051757        3.8426907208        7.4664288544
 H       -10.0918291235        5.2724420545        6.7132748707
 H        -9.3650664853        3.7532892177        6.0958925615
 H       -14.2863405243        0.8643817393        0.4634421022
 H       -12.6745016196        1.4069902903        0.0163140264
 H       -13.5183971748        2.3311546384        1.2452858733
 H       -14.1529885938        1.0297289987        3.5323133999
 H       -13.4416080860       -0.5559984442        3.6915530235
 H       -14.6242858046       -0.2504159300        2.4255866667
 Na       -9.2100216791        5.2417262377       -2.0807550128
