117

 C       -13.0947820903       -2.2583648869        1.6082718847
 C       -12.4087509352       -0.9693552415        1.2284910701
 O       -11.5352360634       -0.9850887637        0.3744969230
 C       -12.8310445457        0.3492717785        1.9268085267
 C       -11.6266077523        1.1421589619        2.5205827946
 O       -11.2157825267        2.1486968269        1.9695739581
 C       -10.9163366712        0.6490705893        3.7462364440
 C       -10.3695575264        1.8146762598        4.5968006441
 C       -11.5451820173        2.4886371992        5.3974565828
 O       -12.6363848865        1.8940241805        5.5263963270
 C       -11.4383434448        4.1229619806        5.7906414950
 C       -11.4376773848        4.7828390252        4.3146909544
 O       -10.3266988941        5.0422502783        3.7791062114
 C       -12.7541835832        5.1392599317        3.6079261955
 C       -12.6066234263        5.7726110041        2.1730153380
 C       -11.8945314328        7.0816679175        2.2277475322
 O       -11.3486705828        7.5272174245        3.2137232477
 C       -11.7402248213        7.9019756521        0.8328416469
 C       -10.5391097315        7.3684405469        0.1252220476
 O       -10.6325332728        6.5034829442       -0.7965738276
 C        -9.2123010232        7.8499036594        0.6594939737
 C        -8.4938427847        6.7203784697        1.3964886528
 C        -7.5589721375        5.9310307397        0.5272761720
 O        -7.1550440340        6.2962226409       -0.5797057693
 C        -7.1416459256        4.5341999018        1.1155178982
 C        -8.0569295021        3.4020469734        0.4976840955
 O        -8.8197748614        3.7275977661       -0.4203505528
 C        -8.0572803434        2.0342432479        1.1063299380
 C        -8.7479573497        1.0378601790        0.1570913182
 C        -7.9048332627        1.0564996679       -1.1243005794
 O        -6.7076503104        1.2644755596       -1.0664597442
 C        -8.6089800012        0.8629484732       -2.4687410099
 C        -8.3521659334        2.1720462004       -3.2745349607
 O        -9.1261475047        3.0526686890       -3.1661058140
 C        -7.0616780303        2.2316954707       -4.0886909231
 C        -6.3077102169        3.6639006693       -4.1523109142
 C        -7.1904032359        4.6724848394       -4.8979726161
 O        -7.9976415029        5.3745651761       -4.3399602517
 C        -6.8368981720        5.0548882239       -6.4040151945
 C        -6.5798827746        3.7793080216       -7.2756952763
 O        -6.4848510245        2.6657293286       -6.7785296331
 C        -6.6536729470        3.8156022193       -8.7477315235
 C        -7.9557434085        5.9742835387       -6.9193376065
 C        -5.4917123009        5.8783090627       -6.3730331102
 C        -7.9275518347       -0.4189335154       -3.0624540148
 C       -10.1145168043        0.5868694560       -2.4255746074
 C        -5.6861770172        4.2625309701        0.7222094191
 C        -7.2652752732        4.4723152289        2.6701929020
 C       -13.0656567865        7.7707311014        0.0298073881
 C       -11.5784988644        9.4160282568        1.1910308225
 C       -12.7075759205        4.5342562197        6.6080342893
 C       -10.2519988460        4.3030157494        6.7521265785
 C       -13.5395342019        1.0782304185        0.7299758285
 C       -13.8456408932        0.2320154912        2.9931760915
 H       -12.8439801203       -3.1372680865        0.9811312161
 H       -14.1845138693       -2.1787595203        1.6924761319
 H       -12.8007138604       -2.4564264098        2.5870047938
 H       -10.0771935895       -0.0112667420        3.4534015292
 H       -11.7047078240        0.1638797857        4.3608252642
 H        -9.8732234394        2.7209164513        4.0212530401
 H        -9.6075273877        1.3764666653        5.2696941683
 H       -13.3922230324        5.7070540861        4.3051915061
 H       -13.3981980388        4.2378688183        3.4397713629
 H       -13.5670523190        5.7901361116        1.8208927575
 H       -11.9850208461        5.0253231722        1.6584822012
 H        -9.3928569272        8.6561471067        1.4237773698
 H        -8.6094504626        8.3975102757       -0.0470288709
 H        -9.3167625829        6.1097905587        1.8340850288
 H        -7.9613074394        7.0164965664        2.2392997306
 H        -8.6569025094        1.9942765815        2.0615766204
 H        -6.9538300647        1.8275705760        1.3467248796
 H        -9.7634613466        1.5146563739        0.0233378369
 H        -8.8115141373        0.0498131038        0.7233581728
 H        -7.3480559401        2.1242821026       -5.1755349442
 H        -6.3218807194        1.5031915465       -3.8054703708
 H        -5.2862917319        3.5422760272       -4.6459531426
 H        -6.1582282189        4.1670078243       -3.1746689378
 H        -6.3888863733        4.6715090675       -9.2740479097
 H        -7.7293391646        3.7060164792       -8.9492635876
 H        -6.1213541312        2.9624738729       -9.1275603167
 H        -8.7554532731        5.5042445511       -7.4418673472
 H        -7.4668144060        6.7001511929       -7.5807702684
 H        -8.3777208157        6.5677675101       -6.1255874544
 H        -4.6982784157        5.5572891980       -7.1180261643
 H        -4.9560983238        5.7903384726       -5.3824174350
 H        -5.6422722449        6.9677599288       -6.4736042289
 H        -8.4530191373       -0.6266640625       -3.9374173292
 H        -8.0335363790       -1.1118502228       -2.2981746747
 H        -6.8957468345       -0.2343250321       -3.3575110093
 H       -10.3674796705        0.2565213739       -3.3995677943
 H       -10.6434886761        1.5142938791       -2.2115733858
 H       -10.3200397809       -0.1977042892       -1.7390183221
 H        -4.9165481052        4.8514970929        1.3379134132
 H        -5.5508966926        4.4864198854       -0.3520828542
 H        -5.3600671193        3.1698463027        0.8869546900
 H        -6.6859513930        5.3025339940        3.1737382611
 H        -6.8892583034        3.4781288070        2.8980543782
 H        -8.3055693870        4.5580194723        2.9861957182
 H       -13.9300761365        7.9865607695        0.6455076618
 H       -13.0753400969        6.7987588978       -0.4431796700
 H       -13.0528336116        8.5052932871       -0.7918901906
 H       -11.2022000817        9.9402723116        0.3708209736
 H       -11.1242330757        9.5330274978        2.1682201310
 H       -12.6168597564        9.8897997124        1.2052963595
 H       -12.4937521602        4.4608041603        7.6719238264
 H       -13.5467901471        4.0047307689        6.1538727796
 H       -12.9233444265        5.5440197203        6.3549706586
 H       -10.3653889838        3.4673467164        7.4376110160
 H       -10.3506687302        5.2046028380        7.2568687866
 H        -9.2635853441        4.1751410071        6.2211596621
 H       -14.3548275446        0.5031985905        0.2332378147
 H       -12.8179807000        1.2946529869       -0.0546822836
 H       -13.9233707548        1.9947228471        1.2153857241
 H       -13.8902634090        1.1614400509        3.5295947094
 H       -13.5563244470       -0.6006225283        3.6304550404
 H       -14.8100541232        0.0043552069        2.5797354362
 Na       -8.5715759431        5.2502700572       -2.2359460222
