117

 C       -13.2417216948       -2.2929485144        1.5794506955
 C       -12.3982036332       -0.9910062240        1.3248282577
 O       -11.4884642726       -1.0055451435        0.4877959979
 C       -12.9306360158        0.3721932817        1.9611038618
 C       -11.7011546942        1.1993553586        2.4831590925
 O       -11.2898284703        2.1623136511        1.8835606420
 C       -10.9649767289        0.6485274872        3.7882808142
 C       -10.4092734366        1.8471511911        4.6274721444
 C       -11.5457229192        2.6044204138        5.2792446831
 O       -12.5143830751        1.9089357954        5.6018809282
 C       -11.4774395362        4.0391131556        5.7262348666
 C       -11.4202831420        4.8831163005        4.3785069300
 O       -10.3207943286        5.0187835135        3.8481675069
 C       -12.7051645084        5.2507865742        3.7493198222
 C       -12.5463074870        5.7232013934        2.2535848673
 C       -11.8298333632        7.0445018959        2.2457044263
 O       -11.4419219857        7.6070075083        3.2497523001
 C       -11.7545307594        7.9103066922        0.7959599745
 C       -10.4352631338        7.4202598089        0.0274657941
 O       -10.5149220688        6.5347734089       -0.8117530414
 C        -9.1085927263        7.8999954851        0.6310137263
 C        -8.4611571494        6.7342912483        1.3841286744
 C        -7.5430238161        5.9458005091        0.5134868753
 O        -7.2310042067        6.3307518308       -0.5584899820
 C        -7.1201476202        4.5153098084        1.0991329416
 C        -8.1349851637        3.4903463773        0.5012777129
 O        -8.9041638995        3.7472592875       -0.3854271703
 C        -8.0981382690        2.0342390680        1.1656093669
 C        -8.7491377228        1.0777358019        0.1302419594
 C        -7.8951777941        1.0821314261       -1.1081199593
 O        -6.7080073117        1.3919967664       -1.0831157512
 C        -8.6214513208        0.7669760210       -2.5089065499
 C        -8.2327543629        2.1336212365       -3.2151702458
 O        -9.0492350913        3.0413628774       -3.1122907251
 C        -6.9637067913        2.2637018535       -4.0154384567
 C        -6.3406015205        3.6439168069       -4.1506687376
 C        -7.1016390524        4.7218148193       -4.8744443078
 O        -7.9724422775        5.4239038979       -4.3691725861
 C        -6.8352643156        4.9886701257       -6.3970038532
 C        -6.7216199678        3.6045714714       -7.3045666388
 O        -6.5202041151        2.5651175473       -6.7250343296
 C        -6.8468902404        3.7050030277       -8.8347747503
 C        -7.9132029424        5.8986290786       -7.0267480685
 C        -5.4407507817        5.7327904975       -6.3759001353
 C        -7.8083347672       -0.5599732655       -3.0223793791
 C       -10.1583809024        0.6783419729       -2.4210449712
 C        -5.6621880907        4.3187482658        0.6083785267
 C        -7.2860824811        4.4240902383        2.6553441199
 C       -13.0450207243        7.7314725311       -0.0657819372
 C       -11.6262385587        9.4554474670        1.1690647117
 C       -12.7392885989        4.4483709190        6.5258353016
 C       -10.2068613914        4.2740930871        6.6163285887
 C       -13.4697847414        1.1718780940        0.6986073948
 C       -14.0393055459        0.0459340025        3.0724260527
 H       -12.9876780489       -3.1216805191        0.9549861329
 H       -14.3522231656       -2.0901721699        1.4486681511
 H       -13.1889804426       -2.5987891134        2.6216427459
 H       -10.1475709380        0.0212993397        3.4557409253
 H       -11.7735716973        0.1073636421        4.4559976521
 H        -9.8437896277        2.6066636520        4.0230234710
 H        -9.7401114590        1.5023209621        5.4592485593
 H       -13.2073269701        6.0249337160        4.3173923266
 H       -13.3890194617        4.4551696500        3.8278013847
 H       -13.5729069002        5.9151892950        1.9636110892
 H       -12.1459163269        4.9012552730        1.6771978093
 H        -9.0740777975        8.8001687284        1.1064459284
 H        -8.4419674707        8.0793112289       -0.2350239687
 H        -9.2249831165        6.1218673056        1.8561673661
 H        -7.8325672240        7.0095809180        2.2440649139
 H        -8.6253261664        2.0277833492        2.1770073168
 H        -7.0453361055        1.7129017552        1.2956232029
 H        -9.8304007061        1.2693465314       -0.0078844572
 H        -8.5220387961        0.0537232232        0.4960277626
 H        -7.1881352626        1.9148460747       -5.0378069290
 H        -6.1475043057        1.6895565378       -3.5695367291
 H        -5.3364754746        3.5101156526       -4.5820747432
 H        -6.2076579131        4.0464711275       -3.0619020254
 H        -6.4815731191        4.7352922960       -9.1378518813
 H        -7.8570134830        3.6329378982       -9.2723794913
 H        -6.1776593257        3.0281945558       -9.2790716994
 H        -8.5937501346        5.2703336094       -7.6130911442
 H        -7.4856447533        6.6197096566       -7.7078960867
 H        -8.5731019446        6.4363914389       -6.3162564430
 H        -4.9247559540        5.8723865755       -7.3177789111
 H        -4.6956415833        5.3390541243       -5.6454662287
 H        -5.6643680994        6.7427538198       -5.9760982246
 H        -7.7895370361       -0.5555655742       -4.1406330049
 H        -8.3157496221       -1.3740709283       -2.4904494988
 H        -6.7656720862       -0.4247691631       -2.7516191869
 H       -10.5861666504        0.7344946881       -3.3705711870
 H       -10.4838087002        1.5262000857       -1.9057292659
 H       -10.4537824425       -0.2872863402       -1.9893152047
 H        -4.9746392219        4.9456788526        1.2379673971
 H        -5.4901506798        4.4736239032       -0.4512125106
 H        -5.3424704471        3.3088273714        0.9065525439
 H        -6.9463293400        5.3206010307        3.1367094841
 H        -6.6561695284        3.6134463992        2.9995529047
 H        -8.3545111025        4.2536375055        2.8698911276
 H       -13.9806798115        7.7125363746        0.5118806954
 H       -12.9636956915        6.9098552445       -0.8263151689
 H       -13.0285418373        8.6492674601       -0.6699498611
 H       -11.1577696211        9.9621478994        0.3377077759
 H       -11.0799589698        9.4930525101        2.1620654942
 H       -12.5650882420       10.0412027294        1.2246684600
 H       -12.6491217068        4.0158291796        7.4839912682
 H       -13.6163265796        4.1804976084        6.0029906873
 H       -12.7648481752        5.5298256338        6.5120819763
 H       -10.0746795502        3.5243729273        7.3589870063
 H       -10.3260237956        5.2901836917        6.9841094435
 H        -9.3571338924        4.2593397417        5.9523407415
 H       -14.2362054628        0.6610238417        0.1281369252
 H       -12.6048101701        1.2927087688        0.0197028206
 H       -13.8347278680        2.1475976573        1.0541411888
 H       -14.1762288327        0.9348685613        3.6011227555
 H       -13.7367007529       -0.7735817862        3.7036145591
 H       -14.9954110260       -0.2298117867        2.6398382859
 Na       -8.5365869642        5.3623349347       -2.1963462027
