117

 C       -13.3204310430       -2.2726644397        1.4196730108
 C       -12.4507526730       -1.0710045084        1.3308919588
 O       -11.3307159900       -1.0671795074        0.8745669764
 C       -13.0436302944        0.3529773425        1.9008938587
 C       -11.7544205297        1.1154126659        2.4961361828
 O       -11.4065800288        2.1470861264        1.9239338186
 C       -10.9748636841        0.5934170394        3.7644575847
 C       -10.5501795643        1.8238257394        4.5031090842
 C       -11.6123126190        2.5065211427        5.3563466698
 O       -12.6195868505        1.8777988380        5.7003580347
 C       -11.4341393530        3.9780368267        5.7441476646
 C       -11.4023143964        4.8322096716        4.3644479344
 O       -10.3190676862        5.0137084999        3.7981080861
 C       -12.6235046494        5.4560120308        3.7042032522
 C       -12.4381452545        5.8558395688        2.2332185814
 C       -11.7837052972        7.1992359238        2.1598722101
 O       -11.5052227006        7.8545042017        3.1472623779
 C       -11.7134080112        7.9170501311        0.7396029276
 C       -10.3873262174        7.5090412474        0.0349858173
 O       -10.4652998322        6.6931526251       -0.8874001005
 C        -9.0010248948        8.0124210779        0.5913146131
 C        -8.2323242377        6.9832065512        1.5046914703
 C        -7.5235240838        5.9565285144        0.6358902066
 O        -7.2143419996        6.2944091673       -0.5449105872
 C        -7.1423471002        4.5399317427        1.2156062126
 C        -8.2193999689        3.4870683196        0.6148549482
 O        -8.8586750623        3.7680250224       -0.3966011494
 C        -8.2776040450        2.1013718944        1.2199424405
 C        -8.6674351738        0.9944514887        0.2703935575
 C        -7.8798977485        1.1279930931       -1.0656693792
 O        -6.7221259050        1.4735371136       -0.9576270217
 C        -8.5984441387        0.7779753452       -2.4493012799
 C        -8.1273422191        2.1537423081       -3.1349505281
 O        -8.8452885300        3.1010634609       -3.0711161470
 C        -6.7566756086        2.2069176824       -3.8250546570
 C        -6.3128979343        3.7451336061       -4.0539811076
 C        -7.1862722523        4.7036548176       -4.9691119266
 O        -7.9096356129        5.5015630143       -4.4126617550
 C        -6.9076009699        4.8207686161       -6.4745033489
 C        -6.8065071842        3.4454221136       -7.3503286378
 O        -6.4781391682        2.4003909858       -6.8187858293
 C        -7.0449419416        3.6226218402       -8.8966423286
 C        -7.8728201763        5.7918077199       -7.1292228568
 C        -5.3774917467        5.3929850721       -6.5921166864
 C        -7.8914825692       -0.4733311610       -3.1940244510
 C       -10.1416652594        0.5119092728       -2.4567585712
 C        -5.7831367568        4.2002955786        0.5373521310
 C        -7.0435928864        4.5205789347        2.7073599393
 C       -12.8970292399        7.4864249079       -0.2594388013
 C       -11.6691385877        9.4165138345        1.0205948400
 C       -12.6242899773        4.4236117822        6.6289772116
 C       -10.1178560890        4.2958176553        6.4660167523
 C       -13.7119798854        1.2020098596        0.7983074054
 C       -14.1200349741        0.1783172440        3.0370869761
 H       -12.8774214568       -3.1701726928        0.8978795441
 H       -14.2962570015       -2.1310480618        0.9750497257
 H       -13.5537027366       -2.5428607450        2.4576960382
 H       -10.1002952997        0.0284434509        3.4055040703
 H       -11.6165578915        0.0638112641        4.3499043869
 H       -10.1836721605        2.5598254442        3.8220712439
 H        -9.8076431193        1.6657596780        5.2486307126
 H       -12.9276699349        6.4033004343        4.1583347220
 H       -13.5435509493        4.7744017839        3.7693252619
 H       -13.4480054370        5.8589846122        1.7555298658
 H       -11.8437619151        5.0202910513        1.7722878459
 H        -9.1896050259        8.9137793021        1.2980909167
 H        -8.3019001164        8.4817242639       -0.0863213241
 H        -8.9319351825        6.4736052526        2.2149046158
 H        -7.5406696131        7.5045405401        2.1914979445
 H        -8.8846183141        2.2805055299        2.0577066692
 H        -7.2997151720        1.8377330854        1.6040431854
 H        -9.7249819538        1.0978793455        0.0312016462
 H        -8.4057147563        0.0162408777        0.6549960792
 H        -6.8766962703        1.6883508126       -4.7776089360
 H        -5.9472171032        1.7737727350       -3.2324296147
 H        -5.2946082514        3.7500116207       -4.4501952303
 H        -6.2774089610        4.1724614561       -3.1087236206
 H        -6.7493699403        4.5655368368       -9.2955214435
 H        -8.1330340682        3.5831436156       -9.0746505152
 H        -6.5513480108        2.8266356706       -9.5353484529
 H        -8.8961948545        5.3925705430       -7.1650464054
 H        -7.5977835666        6.1111354441       -8.1665728953
 H        -7.9925414709        6.6456461028       -6.4696172432
 H        -5.4278421221        6.2174498756       -7.3009727635
 H        -4.7312118222        4.6410827809       -6.9626250919
 H        -4.9206661692        5.7810110478       -5.7256518843
 H        -7.5718763798       -0.1413543229       -4.1648401034
 H        -8.6901699345       -1.1950545444       -3.1881116088
 H        -6.9611859888       -0.8200633505       -2.6688588979
 H       -10.4702991858        0.2354963605       -3.4998222790
 H       -10.6883838150        1.4810056286       -2.2402433497
 H       -10.3927290884       -0.3623251140       -1.8760087274
 H        -4.9730152632        4.8264384295        0.8229872759
 H        -5.8312651882        4.1902122733       -0.5306190522
 H        -5.4623521656        3.2340182403        0.8723177228
 H        -6.1802158451        5.1371358984        3.0551191950
 H        -6.5470651373        3.5755362948        2.9268513983
 H        -8.0139449080        4.6110430300        3.1759143344
 H       -13.8455524665        7.5512413410        0.2905117888
 H       -12.7738547887        6.4753836583       -0.6058457656
 H       -12.8836149816        8.1208134583       -1.1568890203
 H       -11.6224097989        9.9409606831        0.0629724190
 H       -10.9610934016        9.6798424662        1.7692656975
 H       -12.6523862233        9.7220322529        1.3981610377
 H       -12.8098473738        3.5570708268        7.3035494505
 H       -13.5695068550        4.5108913055        6.0143758638
 H       -12.4894551254        5.4186565763        7.0153909972
 H       -10.1118757506        3.6323562303        7.3490781782
 H       -10.0591066410        5.3466186397        6.6508470583
 H        -9.2193979079        4.0094304414        5.8731234738
 H       -14.6243836738        0.6878355497        0.4728688990
 H       -13.0362506668        1.2748585594       -0.0197049585
 H       -13.9905439528        2.1913350166        1.1116876276
 H       -14.5197967708        1.1850513102        3.3275506623
 H       -13.7197340097       -0.4020980489        3.8774365827
 H       -14.9783253039       -0.4188669940        2.7098906546
 Na       -8.7903659921        5.4283707831       -2.0039453840
