117

 C        -9.7701502431       11.1934144835       -3.8447214066
 C        -8.4297858410       10.2464640908       -3.8058242335
 O        -8.6308626448        9.0838149982       -3.4805744422
 C        -7.0723253124       10.9721999154       -3.8668602548
 C        -6.4184018196       11.4403096896       -2.3870010405
 O        -6.7461157081       12.5180178786       -2.0159674716
 C        -5.5379554855       10.5812957164       -1.5317580288
 C        -6.4479071132        9.5831352540       -0.7633704165
 C        -5.8351823200        8.2171678497       -0.4248805755
 O        -5.0457474911        7.6755685464       -1.2226657596
 C        -5.8310992774        7.7629577527        1.0761958960
 C        -7.2486428403        7.2539889711        1.3742425981
 O        -7.8118835604        7.5836603193        2.3803671408
 C        -7.9655919115        6.4082949426        0.3176545181
 C        -9.5576189425        6.5154812282        0.3491558963
 C       -10.4203505675        5.2505491244        0.1728616004
 O       -10.0832611424        4.1662240559        0.7344858113
 C       -11.7010305568        5.2493974094       -0.7791157042
 C       -12.5941130091        4.1425074361       -0.2718383827
 O       -12.4090274853        3.0378192526       -0.7309181389
 C       -13.7537194730        4.5233709994        0.5434241683
 C       -14.5362247391        3.2986267459        1.0088631118
 C       -13.7037470084        2.5265542331        1.9454406150
 O       -12.6062785078        2.9372095147        2.2380419116
 C       -14.1482509980        1.1183477390        2.5438026144
 C       -13.0892720066        0.0726750450        2.2482208289
 O       -11.9423597585        0.3587844173        2.0538270844
 C       -13.2904396006       -1.3415253454        2.6665349602
 C       -12.3592698262       -2.3011326236        1.9317982231
 C       -12.7153284954       -2.4644484690        0.4049202438
 O       -13.4669250919       -1.7450336881       -0.2135389504
 C       -11.9715272208       -3.6008642008       -0.4535100959
 C       -10.4046732152       -3.2375015933       -0.3912038629
 O        -9.8906086667       -3.6957814052        0.5631654289
 C        -9.6620044088       -2.3926986997       -1.4158962662
 C        -8.3495030367       -1.9094894883       -0.9079791946
 C        -8.5635798362       -0.4397347134       -0.4001650933
 O        -9.6911128931        0.0667455724       -0.4777431034
 C        -7.4248394060        0.4776595270        0.2484659907
 C        -7.9098167438        0.7574091507        1.8049097752
 O        -8.9860156263        1.1745498367        2.0621185427
 C        -6.9331629595        0.7216803828        2.9262266726
 C        -6.0171956798       -0.1128806782        0.2278921360
 C        -7.4034927338        1.8817959579       -0.3867456286
 C       -12.1537911307       -4.9729248424        0.3674581538
 C       -12.5480517017       -3.5398536993       -1.8735399362
 C       -14.2731894615        1.3129814286        4.0298236186
 C       -15.5042073514        0.6343396185        2.0165895570
 C       -12.3676741182        6.6192611498       -1.0084770341
 C       -11.2553022389        4.8047348816       -2.1584399396
 C        -4.7666847253        6.5968941108        1.2324786626
 C        -5.4108339914        8.9763297979        1.9819341187
 C        -6.0494496604       10.0844889440       -4.6457011339
 C        -7.2620503504       12.2139485316       -4.7518667395
 H        -9.6732175910       11.9263396720       -4.6509836940
 H        -9.8257457958       11.5433430717       -2.7963776444
 H       -10.6518911781       10.5396337851       -3.9543645408
 H        -4.9917906288       10.9672079292       -0.6845563260
 H        -4.7945335875        9.9452528009       -2.1563916234
 H        -7.3385281685        9.4251554045       -1.4076022560
 H        -6.8295997873        9.9743241656        0.1740264100
 H        -7.5274435848        5.4184762603        0.3382605656
 H        -7.7266587608        6.8141491488       -0.6749959644
 H        -9.8852944873        7.2883774231       -0.3797522819
 H        -9.8148686452        6.9126180083        1.2793341670
 H       -14.4135484323        5.2377174910        0.1115538631
 H       -13.3384882303        5.0115119711        1.4516922230
 H       -14.8153131684        2.6599694871        0.0998869259
 H       -15.4675740732        3.4297588848        1.4777221639
 H       -14.3165561177       -1.6312176747        2.3711115826
 H       -13.1941237519       -1.4966339278        3.7900340940
 H       -12.2461333405       -3.1767557725        2.5014016709
 H       -11.3135070825       -2.0306562678        1.9847460804
 H       -10.3328701649       -1.5817229079       -1.6716228362
 H        -9.5691126620       -2.9061816361       -2.3925334177
 H        -7.5815518543       -1.7544598317       -1.6688145379
 H        -8.0004078927       -2.4536057455        0.0124293263
 H        -6.5740401147       -0.3203899886        3.1905241182
 H        -7.3370167689        1.1213117069        3.7798649507
 H        -5.9821552267        1.2875440587        2.7170241199
 H        -5.6343521592       -0.4401783020       -0.6606710500
 H        -6.0644350683       -1.0137272602        0.9518974764
 H        -5.2097895826        0.5651628850        0.5542924131
 H        -8.3673301809        2.4237833914       -0.2964183310
 H        -7.1710134212        1.7635009517       -1.3845194116
 H        -6.5995285029        2.4220275466        0.1233852474
 H       -13.0414169475       -5.4350133716       -0.1034390891
 H       -12.5316577263       -4.6642938311        1.3227241929
 H       -11.2275056041       -5.6411609531        0.4551852753
 H       -12.5392339123       -2.5073783143       -2.1015457264
 H       -13.5552661281       -3.8360308688       -1.8848060788
 H       -12.0785570858       -4.2858558785       -2.4887785890
 H       -15.2550679724        1.7878927412        4.2208619571
 H       -13.4989895114        1.9573504942        4.4160318012
 H       -14.2365353366        0.3573642053        4.5681194275
 H       -16.1501724839        1.4672147050        1.8200182958
 H       -15.7902919630       -0.1009930651        2.7353669140
 H       -15.3464140953        0.0678110114        1.0480817421
 H       -13.2632135563        6.5325307861       -1.6284731892
 H       -11.6357753617        7.3401490981       -1.4856736456
 H       -12.7525486758        7.1036158366       -0.2029728918
 H       -10.5115561898        4.0297636161       -2.0874250971
 H       -10.7060776360        5.5856971235       -2.6276931371
 H       -12.1953300894        4.5504997890       -2.6201639057
 H        -3.7639223669        7.0228409721        1.2848618586
 H        -4.8153593565        5.9002784665        0.3964592416
 H        -4.9911743556        6.1038732753        2.1705345138
 H        -6.1932103192        9.6950312039        2.1951332580
 H        -4.5343744754        9.4806133094        1.6103382216
 H        -5.1224760883        8.6662088958        2.9889894446
 H        -5.6808952837        9.1311188195       -4.2921916575
 H        -5.0482124014       10.5713736243       -4.6684909386
 H        -6.4078757482        9.8283225966       -5.6970244528
 H        -8.1429995077       12.0956641376       -5.4307352225
 H        -6.3851362999       12.4086762202       -5.3915515669
 H        -7.4666946015       13.0830934625       -4.1918915295
 Na      -10.6938119959        1.8018865170        0.9024216128
