117

 C       -13.4404453363       -2.1901090809        0.9956416748
 C       -12.5462492415       -1.0987414885        1.5526327669
 O       -11.3501287350       -1.3047414181        1.7144505096
 C       -13.1809275841        0.2767781477        1.9156511590
 C       -12.0432199531        1.2115414051        2.4426395930
 O       -11.9122243650        2.3665870786        2.1496137764
 C       -11.2252857415        0.6167408968        3.6372291830
 C       -10.6003884429        1.6964880414        4.6163029627
 C       -11.7167644609        2.6317334741        5.1734262515
 O       -12.7729305061        2.1917349935        5.4410628930
 C       -11.2436798767        4.1635179377        5.6060116113
 C       -11.0812259849        4.8762228873        4.2318382392
 O       -10.0978581109        4.5904843947        3.5220046687
 C       -12.2466097556        5.7617020780        3.7714937875
 C       -12.2547580092        6.0419146796        2.2385294227
 C       -11.6847036548        7.4454728905        1.9379471251
 O       -11.4293441237        8.1516416812        2.8932648459
 C       -11.5731815717        7.7982321575        0.3827915776
 C       -10.1433974491        7.4634506009       -0.0388007263
 O       -10.0016287411        6.7721650111       -1.0342994043
 C        -8.9599449319        7.9928010599        0.8302014217
 C        -8.2899046873        6.8235551479        1.6059812262
 C        -7.4233605066        5.9888608085        0.6086562705
 O        -7.2789654012        6.2959407309       -0.5395586882
 C        -7.0312435755        4.5871120745        1.0684365692
 C        -8.2283501430        3.6497564186        0.6385600993
 O        -9.0603021924        3.9615603179       -0.1771282793
 C        -8.3784369090        2.3127096148        1.3482909439
 C        -8.9435762989        1.1885473259        0.3999305243
 C        -8.0020807514        1.0399247593       -0.7813695298
 O        -6.8116047246        0.9441936846       -0.5158030059
 C        -8.4539225976        0.8306686581       -2.3162044893
 C        -8.0252534097        2.1832999093       -2.9869699430
 O        -8.9064562840        3.0422990146       -3.1319696666
 C        -6.5992585354        2.5141523717       -3.4601873988
 C        -6.2627317215        4.0191468584       -4.0670744596
 C        -7.1599749885        4.7115476093       -5.0310950254
 O        -8.0814326463        5.3963139062       -4.5655057759
 C        -6.8843342041        4.7624121211       -6.6276645650
 C        -7.1621043555        3.2697865750       -7.1396688215
 O        -6.8390108166        2.3713725067       -6.4194429165
 C        -7.7714131474        3.0658185468       -8.5464100887
 C        -7.7256077429        5.8426848574       -7.3114691706
 C        -5.3486584506        5.1325060490       -6.7909580330
 C        -7.6741878128       -0.3567045852       -2.9158764726
 C        -9.9871388523        0.5852030297       -2.4128861786
 C        -5.6175148931        4.1636683138        0.4345656602
 C        -6.9726427550        4.5325805400        2.6540412831
 C       -12.6367725483        7.0726375691       -0.4785227687
 C       -11.7944052639        9.3377057069        0.4165107083
 C       -12.3285157711        4.7785998523        6.4878380572
 C        -9.9370310028        4.2010836685        6.3916362576
 C       -13.9163742965        1.0357420348        0.7347141202
 C       -14.2497281986        0.0733463769        3.0668619596
 H       -12.9131294347       -3.0591343897        0.6832443226
 H       -14.0848098035       -1.9886729849        0.0711886181
 H       -14.1287290246       -2.5559670086        1.7485932528
 H       -10.4116455489        0.1048715231        3.2935173633
 H       -11.8429988088       -0.1548664847        4.1652463616
 H        -9.9360856507        2.3714816785        4.0897910411
 H       -10.0631378919        1.2771489906        5.4002515614
 H       -12.0359792345        6.8137685085        4.1485284928
 H       -13.2537306937        5.4198489311        4.0721224932
 H       -13.2509823968        5.9574470928        1.8267998606
 H       -11.7621085658        5.1346062953        1.7453725553
 H        -9.2946021382        8.7006610423        1.5885409678
 H        -8.1249205530        8.5773274530        0.2734459568
 H        -9.0334241952        6.3381967169        2.3301853424
 H        -7.5188458761        7.2721831999        2.2247256804
 H        -9.0167110403        2.3366258767        2.2013400591
 H        -7.4717957672        2.0464658631        1.8311508232
 H        -9.9605515023        1.3648573484        0.0512913982
 H        -8.9302269602        0.2886200129        1.0365781272
 H        -6.2278199531        1.8689513673       -4.2830578635
 H        -5.9418147222        2.3570902667       -2.6210319047
 H        -5.3348329408        3.8559388132       -4.5485578148
 H        -6.0495069658        4.6848066385       -3.2722330491
 H        -7.1780201239        3.6345146323       -9.3243163960
 H        -8.8095195758        3.4639211803       -8.5966201110
 H        -7.8147761684        2.0587008653       -8.8814525993
 H        -8.6999004210        5.3919669368       -7.5621012305
 H        -7.3565996333        6.2889799232       -8.2395977618
 H        -8.0260596068        6.6608311641       -6.6077755710
 H        -4.9924829358        4.9566422111       -7.7821739656
 H        -4.7886015624        4.4969909540       -6.1286557894
 H        -5.1988602095        6.1605955674       -6.5487644858
 H        -7.9089334376       -0.4012717909       -4.0144730441
 H        -7.9561361731       -1.3495176863       -2.4766954665
 H        -6.6633373022       -0.1404487239       -2.6505169693
 H       -10.2877612262        0.5467131475       -3.4608095940
 H       -10.5371218248        1.4169039540       -1.9381235621
 H       -10.2991143127       -0.3784667617       -1.8773186503
 H        -4.8555277393        4.8054014907        0.8283745343
 H        -5.5679164381        4.3788000217       -0.5930318753
 H        -5.3296907945        3.1465253181        0.4928073599
 H        -6.5865630602        5.5273371353        2.9283315561
 H        -6.3970737998        3.7565873541        3.1736834484
 H        -8.0392407914        4.3966881791        2.9683333587
 H       -13.6678754918        7.1046482326       -0.1242139666
 H       -12.3731159733        5.9945327972       -0.6173835723
 H       -12.5459943819        7.6100543132       -1.4354040859
 H       -11.3796159729        9.8481262559       -0.4118197697
 H       -11.1525973771        9.7037586116        1.2275517765
 H       -12.8368776775        9.5873540984        0.6414102332
 H       -12.2989746302        4.3928837698        7.5203540985
 H       -13.3785844390        4.6705080186        6.1783532398
 H       -11.9745312009        5.8363833490        6.6160735289
 H        -9.8771045756        3.3712274883        7.1157561387
 H        -9.8643550455        5.1043638101        7.0150498705
 H        -9.0729824507        4.1197123749        5.6987748334
 H       -14.7666179991        0.5450311658        0.3371770902
 H       -13.2286918375        1.3640637689       -0.0299185382
 H       -14.2734835889        1.9675445209        1.1547260873
 H       -14.4797544305        0.9485311170        3.6349927079
 H       -13.9397661469       -0.6617816984        3.8472928468
 H       -15.1718715524       -0.3136459202        2.5969215478
 Na       -8.6005232507        5.3252641016       -2.2039086360
