117

 C       -13.5696495385       -2.0901394788        0.8596205683
 C       -12.6224755254       -1.1670791815        1.5299748305
 O       -11.4454702150       -1.4505518710        1.7032219151
 C       -13.2180504245        0.2321487962        1.9981194226
 C       -12.1100386989        1.1899283448        2.6867688909
 O       -12.0894398725        2.3810203797        2.3595160195
 C       -11.2940621862        0.6702332964        3.8759985842
 C       -10.6680944453        1.8145795133        4.5661335065
 C       -11.6080277326        2.7677494849        5.2183271324
 O       -12.8426123073        2.4601687167        5.1815045002
 C       -11.1259241563        4.1633818741        5.6307472502
 C       -11.0527587973        4.9097772996        4.2193941226
 O       -10.0894481654        4.6516736376        3.5119642244
 C       -12.1552186379        5.8172383188        3.7647463112
 C       -12.1585665522        6.0431718500        2.2139589751
 C       -11.7306192946        7.4145066454        1.8295690814
 O       -11.2612181443        8.2137094469        2.6583053180
 C       -11.5866145677        7.7983978562        0.2600803404
 C       -10.1095500666        7.5101859700       -0.2323425349
 O       -10.0134206141        6.7780814103       -1.2154495947
 C        -9.0167206906        8.0582495338        0.7063806402
 C        -8.2913383205        6.9839106349        1.5239398281
 C        -7.4587780689        6.0328934957        0.6428876186
 O        -6.8969718239        6.5043594561       -0.3691613376
 C        -7.0977819489        4.5772597114        1.1716342466
 C        -8.2472068991        3.6048094194        0.6507939909
 O        -8.8456158188        3.8862944065       -0.3707936339
 C        -8.4928413631        2.2587094341        1.2965640584
 C        -9.0091706839        1.3002155445        0.2746568703
 C        -7.9472482042        0.9629241272       -0.8104367257
 O        -6.7941377751        0.9809419613       -0.4590495736
 C        -8.3743017913        0.8269781338       -2.2889018243
 C        -8.0616660868        2.2493719890       -2.8502597882
 O        -8.8786279426        3.1066183343       -2.9016168324
 C        -6.7456874386        2.5451395810       -3.4439039451
 C        -6.4857299717        3.9689375102       -3.7898104175
 C        -7.2997108133        4.7430210079       -4.8544870573
 O        -8.0962039376        5.5423142886       -4.4849039103
 C        -6.9484922426        4.6472320727       -6.4694246914
 C        -7.2235816478        3.1647724571       -6.9914593814
 O        -6.9312599990        2.2542189734       -6.2390413265
 C        -7.9864964224        3.0549771777       -8.3303219732
 C        -7.7450596955        5.7134129709       -7.1851446844
 C        -5.3963998194        4.8553749868       -6.8075313011
 C        -7.5460807704       -0.3772748656       -2.9220597071
 C        -9.8998509171        0.5713625317       -2.4754985158
 C        -5.8422260812        4.1703533038        0.3539928855
 C        -6.7376453195        4.4312921762        2.6300866793
 C       -12.6214125578        7.0568447635       -0.6039769218
 C       -11.7538497330        9.2969499958        0.0870544776
 C       -12.2534835604        4.7935180364        6.5299284322
 C        -9.7385713531        4.0853091805        6.2452115270
 C       -13.7927742096        0.9720082179        0.7564680366
 C       -14.3721648403       -0.0778204063        3.0682485827
 H       -13.1195821065       -3.0460642788        0.5464110362
 H       -13.9161494324       -1.7208646826       -0.0545824228
 H       -14.4288408182       -2.4249887114        1.4098372040
 H       -10.4768147357       -0.1340433507        3.5759809204
 H       -11.9347972828        0.1283176871        4.5430425472
 H       -10.0746333957        2.4897579086        3.8907956422
 H        -9.9216475226        1.5109745392        5.4121175302
 H       -11.9731722560        6.7934922721        4.2283512762
 H       -13.1357390884        5.4088054187        4.0107759104
 H       -13.0209318241        5.5728507694        1.7234617466
 H       -11.4258930808        5.3994938284        1.8005610565
 H        -9.5240318148        8.8529294735        1.2956285089
 H        -8.2446397565        8.5308626304        0.2094358345
 H        -9.0574027263        6.3813079166        1.9072806645
 H        -7.6492732039        7.3112080681        2.3664938780
 H        -9.1086831459        2.4258539749        2.2346598272
 H        -7.5828271531        1.8497577057        1.8416122031
 H        -9.9548359823        1.5656798376       -0.2414492909
 H        -9.1511712253        0.2998846433        0.7363200825
 H        -6.6569951020        2.0486472683       -4.3998561427
 H        -5.8916890606        2.1393499109       -2.8481698098
 H        -5.3863238480        4.0200757372       -4.0554346011
 H        -6.5780433528        4.5557313335       -2.8458925211
 H        -7.7227446018        3.8737953812       -8.9107444837
 H        -9.0501782173        3.0311716415       -8.2000086766
 H        -7.7767183110        2.1748089110       -8.9421494091
 H        -8.8068727307        5.5182041880       -7.1530294975
 H        -7.4893987081        5.8189096197       -8.2441700089
 H        -7.5619319908        6.6784043144       -6.7734589672
 H        -5.2176014308        4.3998542286       -7.8132999517
 H        -4.7399419944        4.3099034642       -6.1326324264
 H        -5.2265128304        5.9390096031       -6.7742257482
 H        -7.3950982174       -0.2351130244       -3.9243656984
 H        -8.1516370152       -1.2231873496       -2.9064314877
 H        -6.6911243021       -0.6513846451       -2.3092180169
 H       -10.0734036280       -0.0204889922       -3.4054305377
 H       -10.4683683939        1.5298126029       -2.5391100480
 H       -10.3041807309        0.0946732599       -1.6143189327
 H        -4.9013642966        4.6958669716        0.6021247431
 H        -5.9162936372        4.3039601756       -0.7552738610
 H        -5.6440717396        3.0579364160        0.3539717325
 H        -5.8244051911        5.0228798163        2.8921085438
 H        -6.6745900630        3.3473338674        2.7851104376
 H        -7.5923351476        4.6890594671        3.2523507981
 H       -13.5987562316        7.3833078169       -0.2460422043
 H       -12.5665181878        6.0290548531       -0.3923799013
 H       -12.6144007945        7.2639444750       -1.6547856389
 H       -11.3862687051        9.5845496508       -0.8921317977
 H       -11.2198763206        9.9488511621        0.7215800775
 H       -12.8362750606        9.4786354093        0.2157893618
 H       -12.2259794871        4.2690786163        7.5255981430
 H       -13.2295661643        4.5302087532        6.0766086963
 H       -12.1410045353        5.8121857005        6.8688267908
 H        -9.7454141062        3.5879529885        7.2413366463
 H        -9.3989892181        5.0710907904        6.5253390938
 H        -9.0224238069        3.6040320849        5.5605137169
 H       -14.5441749364        0.3449196655        0.2247463217
 H       -12.9578244867        1.0509090877        0.0597693339
 H       -14.2105591335        1.9655944953        0.8680159809
 H       -14.8153225150        0.8419274501        3.5403026841
 H       -13.9479778923       -0.5387313529        3.9585305600
 H       -15.1848835314       -0.6901124912        2.6790754768
 Na       -8.4690289871        5.3513517477       -2.2272902064
