117

 C       -13.5199387019       -2.0852952062        0.7079892198
 C       -12.6495923026       -1.1500886182        1.5592496122
 O       -11.4918157004       -1.4267581259        1.7052714227
 C       -13.3410511424        0.1890293765        2.0955824027
 C       -12.2659175384        1.0507604794        2.7416427769
 O       -12.1182552649        2.2085882649        2.4129045414
 C       -11.4089860770        0.5289633275        3.9510971005
 C       -10.7410448460        1.6899377788        4.7348198472
 C       -11.7030898682        2.8386855300        5.1976716421
 O       -12.8509397447        2.6717764682        5.1343520895
 C       -11.0855635008        4.2325155810        5.5675342017
 C       -10.9307951160        4.9554450989        4.1382038609
 O        -9.8773999694        4.8550206895        3.5475273174
 C       -12.1427563470        5.7362529853        3.6541467855
 C       -12.2062225378        6.1130816926        2.1415650333
 C       -11.7268189868        7.5734987415        1.6824289768
 O       -11.1785832936        8.3436982191        2.4165458391
 C       -11.6272296892        7.8374160837        0.1520916935
 C       -10.1137647474        7.4969078130       -0.3443727641
 O       -10.0774919532        6.8037283755       -1.3261775154
 C        -8.8611538892        8.0138564332        0.4496312428
 C        -8.3202041042        6.8540385222        1.4359759314
 C        -7.3148575308        6.0440536839        0.6219827979
 O        -6.8046938527        6.4585158228       -0.3758487545
 C        -6.9714705748        4.5483432117        1.1043334735
 C        -8.1572543762        3.7116682206        0.6533711070
 O        -8.7356882636        4.0110089735       -0.4052478282
 C        -8.5699119185        2.3595452839        1.2865450394
 C        -9.0845503195        1.3860419342        0.2570565235
 C        -8.0067200570        1.0282493934       -0.8322856182
 O        -6.8274558706        0.9895647297       -0.5460445271
 C        -8.3903825512        0.8169351869       -2.3255833249
 C        -8.1015359699        2.3410979272       -2.8704894831
 O        -9.0193248694        3.1672512108       -2.7931715646
 C        -6.7550942177        2.5901779424       -3.4079954967
 C        -6.2676946812        4.0393844795       -3.7063231129
 C        -7.1734454417        4.7014227421       -4.7046241229
 O        -8.0284670051        5.4967217839       -4.2655150638
 C        -7.0169340806        4.4913601838       -6.2639730554
 C        -7.4435209071        2.9899416327       -6.8606346419
 O        -6.9718413718        2.0077941787       -6.3052981804
 C        -8.2430551455        2.9733013207       -8.1774846137
 C        -7.8423934346        5.6459838702       -6.9221155753
 C        -5.4811732623        4.5877279362       -6.5559610580
 C        -7.4000934683       -0.1791947545       -2.9703764100
 C        -9.8218806309        0.3799363136       -2.5123912110
 C        -5.8402551719        3.9519660577        0.2847156686
 C        -6.7618540184        4.4909851376        2.6612554761
 C       -12.5800150641        6.9912969445       -0.6666321266
 C       -11.9161001295        9.3171485551       -0.1578607486
 C       -11.9938107306        4.8799596293        6.6497750174
 C        -9.6667385426        4.1247345706        6.1866987476
 C       -13.8190715400        0.9205303787        0.8120952462
 C       -14.5351019065       -0.0776682314        3.0665435927
 H       -13.2365234635       -3.1165561550        0.6029000833
 H       -13.7087558655       -1.7561232755       -0.3373923123
 H       -14.5343641084       -2.2051483845        1.1301986693
 H       -10.6744734726       -0.1235057917        3.6696307649
 H       -12.0460736554       -0.1094665858        4.6176608000
 H        -9.9905666991        2.1598697885        4.1112659027
 H       -10.2445140748        1.3936899532        5.6070260026
 H       -12.2114511685        6.6647570431        4.2096390202
 H       -13.0211840527        5.1425905429        3.7755552696
 H       -13.1757217193        5.7878854457        1.7972019650
 H       -11.6308924933        5.3462364061        1.5225474717
 H        -9.0865916896        8.8903797651        1.0203141399
 H        -7.9405725723        8.1808250373       -0.2300016688
 H        -9.1290345549        6.2525916574        1.9523977430
 H        -7.7255196435        7.3511284988        2.1891762345
 H        -9.3255260592        2.5698336258        2.0176270801
 H        -7.8271758394        2.0309626055        1.9524712267
 H        -9.9247285950        1.8308582230       -0.2367290386
 H        -9.4300086025        0.4151597139        0.5752881925
 H        -6.7174587808        1.9620690687       -4.3284757582
 H        -6.0597473106        2.1110788143       -2.7298903511
 H        -5.2795750245        3.9944807394       -4.1459535183
 H        -6.1972197671        4.5670914549       -2.7371947722
 H        -7.9413807480        3.6985019984       -8.9789278272
 H        -9.3006876290        3.1245166344       -7.9413636510
 H        -8.2759896620        1.9657782514       -8.6156989117
 H        -8.9023383875        5.7010940445       -6.6851918748
 H        -7.7506290597        5.6842340767       -7.9800615083
 H        -7.3154626150        6.5618762182       -6.6427194462
 H        -5.3602070333        4.8212882994       -7.6048904603
 H        -4.9506880706        3.6218781015       -6.4275571931
 H        -5.0860923177        5.3756105330       -5.8889920680
 H        -7.6331743952       -0.2707608946       -4.0944461124
 H        -7.4980541563       -1.2466411141       -2.5724873180
 H        -6.3658745899        0.0791814871       -2.7113667406
 H       -10.0177633305        0.2584385988       -3.5312360778
 H       -10.4870475510        1.0590636035       -2.0945801883
 H       -10.0380888546       -0.5133951349       -1.9462226024
 H        -4.8803284727        4.4627971673        0.4086209117
 H        -5.9627630122        3.8014617163       -0.7808898716
 H        -5.6918219888        2.9345626554        0.6171382143
 H        -5.8630797092        4.9930586729        2.8481685912
 H        -6.6918530658        3.4409980475        2.8606761651
 H        -7.5147639017        4.9274005632        3.3088614281
 H       -13.5760295790        7.3325113417       -0.3905599310
 H       -12.4741889647        5.8796600705       -0.5937320676
 H       -12.5542221439        7.2885149017       -1.7163113461
 H       -11.8041227273        9.6490486837       -1.2164967684
 H       -11.2477903581       10.0203223739        0.4206429479
 H       -12.8910440956        9.4365396885        0.2353172186
 H       -11.7402064560        4.5339901499        7.6041377208
 H       -12.9983998795        4.7510374482        6.3784354945
 H       -11.7979990589        5.9279463957        6.8034127438
 H        -9.6582596114        3.5502645471        7.0730728856
 H        -9.1835932726        5.0510826251        6.5403542484
 H        -9.0473176327        3.6969866847        5.4442566567
 H       -14.7095187112        0.4810964866        0.3779731035
 H       -13.0661268623        0.9331527033       -0.0050036814
 H       -14.0609965869        1.9634309904        1.0836764310
 H       -15.0112866561        0.7837081521        3.4392510600
 H       -14.2615807557       -0.5937656562        3.9677310909
 H       -15.2839645077       -0.6445367943        2.5333414315
 Na       -8.3589521267        5.5661426469       -2.0889547285
