117

 C       -13.3698438283       -2.1125576533        0.7031484774
 C       -12.7295089441       -1.0423784359        1.5126622729
 O       -11.5450200583       -1.1686511145        1.8063800098
 C       -13.5335191590        0.1978172530        2.0598337390
 C       -12.3844652884        1.0608013130        2.8469847980
 O       -11.6747897909        1.8040221927        2.1896930284
 C       -12.1517598973        0.8481331882        4.3179635034
 C       -11.0965295185        1.7839870627        4.8341931915
 C       -11.7051392569        3.1863235514        5.1849091579
 O       -12.9615532049        3.4235758925        5.1426154170
 C       -10.7892108420        4.3891352797        5.4571358928
 C       -10.8913710351        5.1009496895        4.0386042087
 O        -9.9420685059        5.0838747924        3.2849881711
 C       -12.2967955723        5.6203937156        3.5587237760
 C       -12.3483873857        6.0197981633        2.0505209252
 C       -11.7052582619        7.3527462798        1.6351546152
 O       -11.2126453272        8.1170821089        2.4735222957
 C       -11.5345251970        7.7304485433        0.0469139155
 C       -10.0856702754        7.4039758313       -0.5927765175
 O       -10.1288362454        6.7091958238       -1.6006112161
 C        -8.7722583761        7.9918264203        0.0387253906
 C        -8.1300665470        7.0594227338        1.1565182286
 C        -7.1876107765        5.9883270953        0.5313944473
 O        -6.7200789657        6.1865471622       -0.5898917117
 C        -7.0163387415        4.5618184404        1.2068948588
 C        -8.2153415782        3.7821481169        0.7083391223
 O        -8.9266768842        4.1321970042       -0.2068344399
 C        -8.5203424671        2.4313703903        1.3355773419
 C        -9.0178619673        1.4991428917        0.2727490218
 C        -7.9512641879        1.1694956562       -0.7440908225
 O        -6.8304372215        1.0462231812       -0.3348633817
 C        -8.3487318454        0.8569309724       -2.2971579023
 C        -7.8536074513        2.2001535923       -2.8997155842
 O        -8.5856496644        3.1669759838       -2.8866455954
 C        -6.4320163864        2.3700577163       -3.3427265746
 C        -6.1869285646        3.9196239264       -3.6847537413
 C        -7.0899487047        4.6327815047       -4.7019279590
 O        -7.8843306451        5.4204581315       -4.3192030905
 C        -6.9413632501        4.4383718304       -6.2581386218
 C        -7.7208319395        3.0102551744       -6.4155761744
 O        -7.2054530577        2.0538378407       -5.9070139136
 C        -8.9956354311        2.9417441336       -7.2250855446
 C        -7.5667216432        5.6102920436       -7.0859501471
 C        -5.4686792903        4.1774501231       -6.8070177025
 C        -7.6029948811       -0.4565379430       -2.7167701907
 C        -9.8631274262        0.6992083053       -2.5464096409
 C        -5.7539603787        3.8125270837        0.6001538414
 C        -6.7244681732        4.6397622323        2.6720084506
 C       -12.5997345097        7.0922737729       -0.8678571401
 C       -11.7533159129        9.2214590431       -0.0315732127
 C       -11.3589351364        5.3052559170        6.6030193515
 C        -9.3680831209        3.9429363556        5.5972837501
 C       -14.1612846532        0.9749423519        0.8850422006
 C       -14.6049614186       -0.3447117864        3.0789483839
 H       -13.2623623094       -3.1939412632        0.9747362612
 H       -13.0110214382       -2.0895468461       -0.2900310331
 H       -14.4479650795       -1.9880953532        0.4853673838
 H       -11.8635128870       -0.1954089943        4.5508349101
 H       -13.0287145794        0.9379875898        4.8517676671
 H       -10.4358676354        2.0026746733        4.0427186650
 H       -10.5998053238        1.3810780728        5.7169554171
 H       -12.4762515615        6.5578448072        4.0956141667
 H       -13.0635704009        4.9111613306        3.7682884761
 H       -13.3323026170        5.8649005011        1.5158936261
 H       -11.7308114227        5.2314210211        1.5932570745
 H        -9.1987846856        8.8326978180        0.6599119065
 H        -8.0522635437        8.2198743255       -0.7445583336
 H        -8.9210813110        6.6160697317        1.7695468492
 H        -7.5298006096        7.7151485070        1.8355430292
 H        -9.2370800395        2.5160886148        2.1229491485
 H        -7.6962341361        2.0613594228        1.8762303880
 H        -9.8509423388        1.8235031567       -0.3332749264
 H        -9.3714888122        0.6024187175        0.7441898216
 H        -6.1207949167        1.7523624828       -4.1795425513
 H        -5.7400686433        1.9885338670       -2.5577953528
 H        -5.1577703359        4.0559293082       -3.9663073820
 H        -6.4133628894        4.5058898550       -2.7691282281
 H        -8.7874221268        3.1104488193       -8.2802963288
 H        -9.6868030934        3.7719636119       -7.0139136457
 H        -9.5193882473        1.9641645827       -7.1307113382
 H        -8.4546856457        5.9148639696       -6.5430123806
 H        -7.8724111169        5.2911368046       -8.0819761509
 H        -6.9548055032        6.4873195472       -7.1226964358
 H        -5.5615244896        3.9388419369       -7.8986186141
 H        -5.1304824042        3.3304716864       -6.1978323823
 H        -4.8014646988        5.0716343320       -6.6850441145
 H        -6.8586266305       -0.4007965702       -3.5334743555
 H        -8.3636253593       -1.2652178878       -2.8459861869
 H        -6.8528002171       -0.7717390756       -1.8822530999
 H       -10.1004879653        0.1366311544       -3.4369732001
 H       -10.3806968466        1.6320763697       -2.6502068048
 H       -10.2889650730        0.1672983756       -1.7657760785
 H        -4.7730871907        4.1244203683        0.9310642261
 H        -5.7733640824        3.9241285590       -0.5071530517
 H        -5.6511749967        2.7276168121        0.7813099960
 H        -5.8685549763        5.2823180598        2.7911319860
 H        -6.5128880795        3.7099320607        3.1918456884
 H        -7.4939844798        5.2431077566        3.0372340488
 H       -13.6373765149        7.3113025619       -0.5413735507
 H       -12.4933126011        6.0252260320       -0.8646748990
 H       -12.4754916817        7.3218687285       -1.9215544090
 H       -11.6820953572        9.5946612486       -1.0781273100
 H       -11.2135006081        9.8130179255        0.6877766581
 H       -12.8383412880        9.4373267981        0.1483955159
 H       -11.1917679463        4.8908352741        7.5991832136
 H       -12.4115597943        5.5175125857        6.5322005445
 H       -10.8762982456        6.2543725439        6.5402551612
 H        -9.3151151827        3.5280473775        6.6109018813
 H        -8.6369003892        4.7155841895        5.5067047842
 H        -8.9925961997        3.1738230353        4.9711884503
 H       -14.5171702470        0.3511075522        0.0310230943
 H       -13.3502198768        1.5707681077        0.4188507184
 H       -14.9434487960        1.6828362591        1.1840981405
 H       -15.0786042824        0.4268571523        3.6983586142
 H       -14.1786871545       -1.0584327575        3.7350795966
 H       -15.4358986672       -0.8675994412        2.6639973401
 Na       -8.5322810384        5.2530760628       -2.1489222045
