117

 C       -13.3766609708       -2.1754451753        0.6090526726
 C       -12.7048275545       -1.0787098768        1.5057200585
 O       -11.5242973915       -1.1492673980        1.7518889744
 C       -13.5214598970        0.1693338225        2.0698710927
 C       -12.4735972219        1.0297149546        2.7971576301
 O       -11.6874643456        1.7110355290        2.1984846174
 C       -12.3113165533        0.8606643081        4.3389459014
 C       -11.1844284493        1.8249027530        4.9454378787
 C       -11.7718029760        3.2802088359        5.2445447826
 O       -12.9485566639        3.3949265587        5.1585387011
 C       -10.7320052189        4.4861622679        5.4324286574
 C       -10.9457862184        5.1876843992        3.9916893338
 O       -10.0290172130        5.0657343675        3.1843074546
 C       -12.2834544826        5.7150845871        3.4705757450
 C       -12.3045791420        6.0288058968        1.9852381015
 C       -11.5641102383        7.3105383131        1.5984400068
 O       -11.1719479387        8.0514872686        2.4334921591
 C       -11.5322521142        7.7262988038        0.0506194704
 C       -10.1582743138        7.3140064381       -0.5197532557
 O       -10.0830483269        6.6471716900       -1.5403852566
 C        -8.8646823624        7.9377570372        0.0383901163
 C        -8.1796436820        7.0858223072        1.0981422199
 C        -7.2579099297        5.9928103643        0.4790059453
 O        -6.7797261856        6.1459834047       -0.6601804399
 C        -7.0157709432        4.6694383963        1.2016834667
 C        -8.2689713719        3.8074876104        0.7977050219
 O        -8.8886985432        4.1036633195       -0.1798399462
 C        -8.6400222013        2.4283863882        1.4610140124
 C        -9.1222612488        1.4442777974        0.3778870680
 C        -7.9545920525        1.0667391694       -0.7092269790
 O        -6.7538114669        1.0219281414       -0.4190279596
 C        -8.3156937759        0.8386302678       -2.1844594708
 C        -7.8229816590        2.2026399064       -2.8275211398
 O        -8.6331357714        3.0975155792       -2.8834569859
 C        -6.3384372540        2.4455396963       -3.3272735745
 C        -6.0308501853        3.8759526698       -3.7884238251
 C        -6.9851202495        4.6269467359       -4.7236472165
 O        -7.7810014719        5.5127983252       -4.3700146971
 C        -6.9445385014        4.2967701233       -6.2927028348
 C        -7.7408865615        3.0031484814       -6.5203489432
 O        -7.3022417434        1.9994013148       -5.9775254719
 C        -9.1100072466        3.0396674258       -7.0099614037
 C        -7.5402396306        5.4898323539       -7.0768263118
 C        -5.4722830331        4.0074527334       -6.7454461014
 C        -7.5644208161       -0.3751067465       -2.8047137697
 C        -9.8227991886        0.7158090878       -2.4160881051
 C        -5.8326988659        3.9315575763        0.4994658961
 C        -6.7025398553        4.6986187308        2.7533392645
 C       -12.5177085968        7.0982291643       -0.8918309705
 C       -11.6350102158        9.2992997711       -0.0102269752
 C       -11.1167785483        5.4302662221        6.5840409430
 C        -9.2838949153        4.0623595792        5.6364387938
 C       -14.2113248329        0.9478687864        0.9604003941
 C       -14.6319623085       -0.2840406165        3.0174209682
 H       -13.2145536359       -3.1772334091        0.9979000187
 H       -12.9367504862       -2.2692613692       -0.4257494705
 H       -14.4160460558       -2.1283371713        0.3368077103
 H       -11.9868420629       -0.1972517824        4.5277640498
 H       -13.2205576160        0.9044517912        4.8720175950
 H       -10.4902981511        1.9680669373        4.1838729493
 H       -10.7207417567        1.4318897818        5.8378433121
 H       -12.6215933906        6.6455703466        3.9924027933
 H       -13.0396975594        4.8742856817        3.6450942775
 H       -13.3586839627        6.1497132114        1.5998097958
 H       -11.9758640796        5.1196436217        1.4944099629
 H        -9.2536395053        8.8781763212        0.5547625985
 H        -8.1565241621        8.0509546640       -0.7710487527
 H        -8.8447635992        6.7086265744        1.8824416510
 H        -7.4119309589        7.7589951237        1.6157965704
 H        -9.3746838309        2.5836051570        2.2069109007
 H        -7.7823761769        2.0837851656        2.0611673827
 H        -9.9201628360        1.8736363216       -0.2570027579
 H        -9.5816176984        0.5222003900        0.7973642462
 H        -5.9539779838        1.7711273241       -4.0831945250
 H        -5.6190662202        2.2319255353       -2.5061322471
 H        -5.0432270660        3.8609379702       -4.2376311631
 H        -5.9871667914        4.4572170196       -2.9228606810
 H        -9.1472747594        3.3632786332       -8.0712601866
 H        -9.6834024219        3.8920180086       -6.5137424337
 H        -9.5956647092        2.0978995777       -6.9174836431
 H        -8.4682549782        5.8326913117       -6.6446170425
 H        -7.6969874423        5.2051956043       -8.1415791044
 H        -6.8890474597        6.3622530463       -6.9837524589
 H        -5.4479623059        4.0213045142       -7.8461206469
 H        -5.1861413944        3.0641057074       -6.2835183642
 H        -4.8565037312        4.8193214696       -6.4185433212
 H        -7.1155643521       -0.1874621695       -3.8131160942
 H        -8.3205984940       -1.2164067679       -2.8082927727
 H        -6.6351175408       -0.6767079431       -2.2875573271
 H       -10.0705990030        0.2497393442       -3.3343809874
 H       -10.3182995692        1.6708430854       -2.4524334848
 H       -10.2709256017        0.0459417304       -1.6994508907
 H        -4.8590947575        4.3340565639        0.7101570141
 H        -5.9501836912        3.9480946704       -0.5332071118
 H        -5.6450760882        2.9297976303        0.7959141548
 H        -5.6873585359        5.0072054012        3.0348683423
 H        -6.7747803347        3.7069348655        3.0840459073
 H        -7.4188403498        5.3654138758        3.2194812445
 H       -13.5272664613        7.3069595204       -0.4849409748
 H       -12.4627828449        6.0012456955       -0.9336956461
 H       -12.4303512987        7.4128663600       -1.9600813790
 H       -11.5286882068        9.6606302069       -0.9715060941
 H       -11.0347755743        9.7828642853        0.7479988845
 H       -12.7041976158        9.6298138929        0.1954641088
 H       -10.9143526062        4.9293516474        7.5261945054
 H       -12.1286343945        5.7870076536        6.7030927305
 H       -10.4849323369        6.2822980214        6.4627980067
 H        -9.2621831304        3.6346893151        6.6206177909
 H        -8.6140596190        4.8510253472        5.6162719889
 H        -8.8271777134        3.2512541199        5.0231297577
 H       -14.7035639171        0.3009693894        0.1992286130
 H       -13.4765755847        1.5182671651        0.4009605874
 H       -14.9343851602        1.6756722826        1.3496077678
 H       -15.2174243505        0.5069729491        3.4257859304
 H       -14.3115630126       -0.9383660608        3.8068710992
 H       -15.3318622572       -0.9083775592        2.5163765017
 Na       -8.6058561050        5.2433268605       -2.1392634284
