117

 C       -13.4857455711       -2.0947944789        0.6385847499
 C       -12.6376196851       -1.1249663764        1.4346478498
 O       -11.4401088933       -1.2228805733        1.4816098785
 C       -13.4494882056        0.0751504374        2.1014994915
 C       -12.5470329331        1.0537965016        2.9373536325
 O       -11.7747424989        1.8251446832        2.4140712192
 C       -12.6504339007        1.1039239246        4.5110156219
 C       -11.4093742100        1.9160081865        5.0059478948
 C       -11.8997493641        3.4298064793        5.3189907691
 O       -12.9671103970        3.6670985005        5.6628718840
 C       -10.7905590549        4.5482554480        5.0579822993
 C       -10.9260375352        5.0410903021        3.6030599912
 O       -10.0255993479        4.9797597782        2.7384843402
 C       -12.2109957277        5.8666485375        3.3580432837
 C       -12.4036303403        6.3868881610        1.9461646281
 C       -11.4989200260        7.5508819143        1.5700887951
 O       -10.6594182921        8.0292869156        2.2560667451
 C       -11.5110853114        7.9710295269        0.0381742767
 C       -10.2187836437        7.4661692146       -0.5340513092
 O       -10.2596239898        6.5181825436       -1.3178809903
 C        -8.8792787122        8.1013135686        0.0740402295
 C        -8.2206116194        7.0154770946        0.9915516977
 C        -7.3425914311        6.0012017260        0.3384852959
 O        -6.8729194145        6.2205130151       -0.7951602005
 C        -7.1002300759        4.6978742593        1.0504183188
 C        -8.3251603008        3.6808111285        0.7547459749
 O        -9.0526491967        3.8204291801       -0.1930071525
 C        -8.4287979103        2.3409796687        1.5427890202
 C        -8.8587597311        1.2009758871        0.6566882299
 C        -7.8291695154        1.0821693382       -0.5921010715
 O        -6.6249344732        1.0646138998       -0.3816870803
 C        -8.3090358105        0.8226186937       -2.0765654868
 C        -7.8999285253        2.1816506395       -2.7687315091
 O        -8.7296510184        3.0628547310       -2.9316030041
 C        -6.4249018049        2.3595469980       -3.3241436753
 C        -5.9870704441        3.8307408775       -3.6860948500
 C        -6.7691708405        4.5532544958       -4.7668412388
 O        -7.5153772458        5.5329082354       -4.5289606307
 C        -6.8039389154        3.9676032948       -6.2356114438
 C        -7.9574096950        2.8938683308       -6.2543454375
 O        -7.7319114063        1.7338610262       -6.5527248704
 C        -9.3672578934        3.3070096335       -6.0831427064
 C        -7.1162792811        5.1747776289       -7.1407000614
 C        -5.5326609329        3.2115741490       -6.5837580531
 C        -7.4011867647       -0.3435189662       -2.5132291225
 C        -9.8443742902        0.5875535376       -2.1851184738
 C        -5.9022391768        3.9843763109        0.4194242957
 C        -7.0086071034        4.8240698642        2.6005950094
 C       -12.7236677722        7.3714788251       -0.7313033717
 C       -11.6743971130        9.5152181720        0.0368638312
 C       -10.9404013745        5.6813504796        6.1211392045
 C        -9.3848902801        4.0003021652        5.4087083596
 C       -14.1405452916        0.9212820983        0.9635283228
 C       -14.4933735473       -0.4891397579        3.0304097322
 H       -13.5738850950       -3.0290551461        1.1391418234
 H       -12.9437090218       -2.5420030614       -0.2540845974
 H       -14.4289572950       -1.7469712766        0.2720631468
 H       -12.6183978119        0.1033918394        4.9382403929
 H       -13.5291188956        1.5611610554        4.8821881130
 H       -10.6692459892        1.8676395743        4.2704958504
 H       -11.0544068838        1.5124374956        5.9568203207
 H       -12.2895779297        6.6893216806        4.0521542500
 H       -13.1376391195        5.2689690512        3.4995143849
 H       -13.5189806782        6.5557498781        1.8763521996
 H       -12.1578660631        5.5838818845        1.2343641066
 H        -9.2293868458        8.8832590598        0.8021930550
 H        -8.2236576945        8.5948293501       -0.6873219634
 H        -8.9608450359        6.4856046477        1.5771878473
 H        -7.5662375843        7.4345983365        1.8192224272
 H        -9.0575857834        2.4709796792        2.3596157807
 H        -7.4234952813        2.1906231837        1.9184831008
 H        -9.8587318134        1.2179387776        0.2663872190
 H        -8.7054874252        0.3027565182        1.2630313524
 H        -6.4176288858        1.7456026208       -4.2383437508
 H        -5.5889019296        1.9171874466       -2.7197551886
 H        -4.9244036813        3.8723177463       -4.0169489035
 H        -5.9926803994        4.3838844925       -2.7746496730
 H        -9.5741660704        3.9850217430       -6.9288787927
 H        -9.6801482571        3.8734953425       -5.1794873294
 H        -9.9801207214        2.4452778674       -6.1768139642
 H        -7.8788165321        5.7735195887       -6.7090552881
 H        -7.4341341967        4.8444484146       -8.1158145805
 H        -6.2271442843        5.7879040501       -7.2252112761
 H        -5.7989391377        2.7581728163       -7.5656103237
 H        -5.4074463178        2.3900317443       -5.8209452238
 H        -4.6866927918        3.9072824633       -6.6934420214
 H        -7.3554128943       -0.5270237683       -3.6499686206
 H        -7.6120498099       -1.3610973724       -2.0408785289
 H        -6.3442211077       -0.1583294496       -2.2773178780
 H       -10.1280972237        0.4028136201       -3.1764758851
 H       -10.3527567439        1.4783611684       -1.9240059775
 H       -10.2133231291       -0.3034821061       -1.6926676270
 H        -4.8915451831        4.4696590754        0.6162431676
 H        -5.8646370430        3.8266528190       -0.6689659384
 H        -5.6793916559        2.9899488269        0.8778427316
 H        -6.3830833002        5.6454324359        2.9451636899
 H        -6.4722848213        4.0059589070        2.9678651213
 H        -8.0099640692        4.7762971320        3.0432486915
 H       -13.6510087069        7.6071864082       -0.2790742028
 H       -12.7612242387        6.2986424107       -0.8144310113
 H       -12.7064474319        7.8133185011       -1.7266601443
 H       -11.3978180519        9.9056438431       -0.9308263133
 H       -10.9616970479        9.9262462388        0.8192113554
 H       -12.6775700539        9.9370211314        0.2588720890
 H       -10.5412215322        5.4165819770        7.0890931908
 H       -11.9498127207        5.9518718175        6.3670594772
 H       -10.4213521012        6.4895969625        5.6566094681
 H        -9.4024984500        3.4496864820        6.3279546194
 H        -8.6004084960        4.7022773177        5.5260192435
 H        -9.0875410900        3.1725393078        4.7233485281
 H       -15.0361760616        0.4346574961        0.5435741964
 H       -13.4970191641        1.3692650188        0.2141031056
 H       -14.5708921849        1.7962281652        1.4860603263
 H       -14.9758649000        0.2947503593        3.5896709975
 H       -14.1744777433       -1.2475419515        3.7664293186
 H       -15.2878414540       -0.9950761850        2.4817592534
 Na       -8.2555465051        5.3939309210       -2.2785636306
