117

 C       -13.3903260834       -2.1139016935        0.7536320010
 C       -12.6579004961       -0.9990895680        1.4556786889
 O       -11.4488909623       -1.0138027125        1.4524169923
 C       -13.5138788195        0.0878680379        2.1089750024
 C       -12.5201397819        1.0951232361        2.9008213284
 O       -11.7646573793        1.7702070737        2.2435213408
 C       -12.5634464635        1.0975468755        4.4340458530
 C       -11.5115120491        1.9427451439        5.2297772294
 C       -11.8176267133        3.4574265153        5.3484467696
 O       -13.0047578834        3.8245883502        5.6259574080
 C       -10.7534342430        4.5385136612        5.1492356422
 C       -11.0784027775        5.0660254573        3.6580640919
 O       -10.3200595333        4.7232222520        2.8071161404
 C       -12.3373116045        5.8573885545        3.4301696649
 C       -12.4903612328        6.4409256863        1.9658007742
 C       -11.5547454056        7.5785152903        1.5545886993
 O       -10.8550817053        8.1119386561        2.3766553506
 C       -11.4916983311        8.1017752176       -0.0276094746
 C       -10.1264045496        7.5912861995       -0.6541203653
 O       -10.2642967271        6.6881509120       -1.4642736472
 C        -8.7292484263        8.0663121896       -0.1002234711
 C        -8.1894514757        7.0971482765        0.9569103315
 C        -7.3300455753        6.0245246530        0.3323764546
 O        -6.7622247999        6.3067284433       -0.6976661565
 C        -7.0406731997        4.6869431989        1.0771469340
 C        -8.1803448791        3.6955903433        0.6011060808
 O        -8.7785829162        3.8203214161       -0.4471184210
 C        -8.4740608949        2.4287758299        1.4488414564
 C        -8.8164324066        1.1983486600        0.5178606318
 C        -7.7066161593        1.0653574260       -0.5464860369
 O        -6.5252430675        1.2926007595       -0.3280880155
 C        -8.2338049113        0.6938495607       -1.9996717663
 C        -7.7899890819        2.0415268100       -2.6796266672
 O        -8.5900721265        2.9584760034       -2.7687423633
 C        -6.4035793396        2.1592802309       -3.2981686495
 C        -6.0714621208        3.6419298194       -3.6249578074
 C        -6.8424297178        4.4085923079       -4.7618696699
 O        -7.5350271555        5.3358793559       -4.4385538685
 C        -6.8133127454        3.8599687933       -6.1718174826
 C        -8.0853551824        2.9033407008       -6.1175983965
 O        -8.0146166100        1.8073145333       -6.6238558441
 C        -9.3829588874        3.4692915207       -5.7117183499
 C        -6.8969559592        4.8363725399       -7.4164988685
 C        -5.4899164237        3.0932386211       -6.4596696112
 C        -7.6529791278       -0.5966121010       -2.6415745013
 C        -9.7926072248        0.5680123469       -2.1361160627
 C        -5.7189752624        4.0792018823        0.5032402529
 C        -6.8494474107        4.8640350902        2.5136601977
 C       -12.6994829367        7.5962832006       -0.9166039705
 C       -11.5645357888        9.6219410291       -0.0387809605
 C       -10.8606957195        5.7837604117        6.1310904312
 C        -9.3003721311        3.9076441015        5.1444000665
 C       -14.1806102738        1.0069089770        1.0935752234
 C       -14.5564892139       -0.6244721431        3.0432105960
 H       -13.7705856700       -2.9706462243        1.3542478499
 H       -12.7473905844       -2.6782713985        0.1468690387
 H       -14.1941417421       -1.7185939631        0.1237934558
 H       -12.5293439698        0.0447160792        4.7996943025
 H       -13.5688351687        1.5250092273        4.7437028737
 H       -10.4954406840        1.8769257292        4.7740137361
 H       -11.4526688098        1.5741896405        6.2568651127
 H       -12.3005354372        6.6635247138        4.2428815082
 H       -13.2672741098        5.2905737030        3.6544080126
 H       -13.4996208539        6.8013480279        1.8510189738
 H       -12.3416017098        5.5602731568        1.3230662437
 H        -8.7262546840        9.0497085411        0.3644026287
 H        -8.1022652279        8.2012621421       -0.9887110929
 H        -8.9673216793        6.6564852969        1.6268848667
 H        -7.5924931006        7.6639131141        1.6575965173
 H        -9.3656308056        2.7543758467        2.1059413602
 H        -7.5687317776        2.2322705231        2.0512856541
 H        -9.7874403760        1.1293880398       -0.0015851591
 H        -8.6836749100        0.3454544908        1.2056341030
 H        -6.3773621598        1.5122209710       -4.1867995199
 H        -5.5851993544        1.8070891453       -2.6988535272
 H        -5.0177586470        3.7049731871       -3.7195486316
 H        -6.2813313529        4.2473084275       -2.7119324789
 H        -9.7467549801        4.1982803721       -6.4422027450
 H        -9.3683315912        4.0357781053       -4.7795236059
 H       -10.1476283481        2.6795207622       -5.5911409635
 H        -7.7363667162        5.5538838571       -7.3184921587
 H        -7.0793817723        4.2064594189       -8.3059167574
 H        -5.9355863334        5.3442094669       -7.5636120931
 H        -5.5734737660        2.4878980613       -7.3467189038
 H        -5.3245533361        2.4448386296       -5.6412948389
 H        -4.7211278645        3.8565581133       -6.5088991836
 H        -7.3060151164       -0.5073964816       -3.6455561758
 H        -8.3663125209       -1.3947028183       -2.6751144295
 H        -6.8238701837       -1.0671580964       -2.0579810100
 H       -10.1345619996        0.1089259556       -3.0926276672
 H       -10.2646567866        1.5510142311       -1.9940308786
 H       -10.1665925211       -0.0716396543       -1.3643479785
 H        -4.8705746672        4.5756157577        0.8350979276
 H        -5.6395922891        4.0921232529       -0.5443931586
 H        -5.5651838454        3.0623200582        0.7306264300
 H        -6.0692590871        5.5910031790        2.6690287821
 H        -6.6250341845        3.9202160966        3.0695639740
 H        -7.7930030811        5.1262820106        2.9323245643
 H       -13.7211765526        7.7807990772       -0.4655554627
 H       -12.6827637725        6.4965698838       -0.9532684066
 H       -12.7285648577        8.0397133074       -1.9210735676
 H       -11.5693658172       10.0227255266       -1.0673182502
 H       -10.7410255586       10.0641357220        0.4536053885
 H       -12.4665365455        9.9524140582        0.4922996975
 H       -10.5978213747        5.4338451665        7.1484775973
 H       -11.9543316246        5.9395172572        6.1537955240
 H       -10.3128588675        6.6974021495        5.9075627411
 H        -8.9900300098        3.4185144944        6.0705741995
 H        -8.5494420441        4.6799003644        5.0718204404
 H        -9.1884010148        3.1755719574        4.3931533359
 H       -14.6370494692        0.4410852267        0.2797022852
 H       -13.4362186106        1.7225381634        0.7174355604
 H       -14.9971758399        1.6002517757        1.5146028912
 H       -15.1156503213        0.1567171815        3.5787479715
 H       -14.1224300646       -1.1937237327        3.8351312888
 H       -15.2565427013       -1.2594110354        2.5255388429
 Na       -8.5950541178        5.3194325721       -2.2033185652
