117

 C       -12.9526062489       -2.1802237920        1.2569006907
 C       -12.4798359611       -0.7142458603        1.3894114671
 O       -11.4347272019       -0.3491327446        0.8668011144
 C       -13.4190496474        0.2622392333        2.2685920635
 C       -12.5245475750        1.1637459706        3.2674692900
 O       -11.9387568007        2.1093471007        2.7859494441
 C       -12.4625090695        0.8657775806        4.7854467865
 C       -11.7326640121        2.0486227930        5.5033562334
 C       -11.9992084930        3.4912971771        4.9429138505
 O       -13.2083801649        3.8601019831        4.8010938633
 C       -10.8845896793        4.5618536644        4.8602756747
 C       -10.9525521245        5.3133476966        3.4324363179
 O       -10.0084488063        5.2783350700        2.7031951592
 C       -12.2335731352        6.0565463255        3.0365043903
 C       -12.2752169345        6.6021010909        1.6088595926
 C       -11.4145148118        7.7788917096        1.3607046217
 O       -10.7655445836        8.3519285046        2.1801966225
 C       -11.3971740987        8.2837417086       -0.1421475318
 C       -10.1393062610        7.5861742333       -0.6700048728
 O       -10.2313495860        6.5681698892       -1.3122254871
 C        -8.7434619516        8.1036620320       -0.0671022285
 C        -8.1237484826        7.1856740317        0.9876355742
 C        -7.1497716959        6.2386864989        0.3648643637
 O        -6.7123910698        6.5040178846       -0.7033313862
 C        -6.8262687614        4.8768160571        1.0764595711
 C        -7.8057534848        3.7826463978        0.5957272629
 O        -8.4285287621        3.7746252671       -0.4685825401
 C        -8.1219079150        2.5699947692        1.5159192675
 C        -8.7385772861        1.4272261210        0.6823766521
 C        -7.7488493554        0.7693560721       -0.3751711895
 O        -6.6007237657        0.4209972200       -0.1114066384
 C        -8.3979805977        0.5080058506       -1.8296986641
 C        -7.9260819612        1.7844759968       -2.6211233213
 O        -8.6709683488        2.6996049590       -2.9063946651
 C        -6.5302191952        1.7823127312       -3.2779672046
 C        -6.1650149397        3.2140265327       -3.5596582822
 C        -7.0124101540        3.9555936571       -4.6363590695
 O        -7.6695631687        4.9452324629       -4.3111621885
 C        -6.9462505179        3.4786181447       -6.1678254042
 C        -8.3385029403        2.7473910511       -6.1743115990
 O        -8.3809786780        1.5400646550       -6.0292837816
 C        -9.5858877604        3.5178967465       -6.4968755330
 C        -6.9709897559        4.6336941740       -7.1950166747
 C        -5.7670135440        2.6090530856       -6.4906000895
 C        -7.8864669390       -0.8861762885       -2.3689693081
 C        -9.9702590278        0.4612757725       -1.9096694494
 C        -5.4173396288        4.4175299811        0.5524501638
 C        -6.7969956930        5.0368894785        2.5890698538
 C       -12.7586003312        7.9252880140       -0.9631538054
 C       -11.3401480034        9.8459441155       -0.0705995009
 C       -11.3185281288        5.6030508011        5.9565073962
 C        -9.4429575265        3.9977087430        5.0306345625
 C       -14.1962280184        1.1709607000        1.1847943464
 C       -14.4844782007       -0.5119902289        3.0914001449
 H       -12.9298681308       -2.7441240722        2.2148380788
 H       -12.3835737052       -2.6571894528        0.5097888357
 H       -14.0059671785       -2.3918787831        1.0119083521
 H       -11.9911467904       -0.0340803797        4.8956494260
 H       -13.5030630082        0.8194472614        5.1715679966
 H       -10.6196426481        1.8828419361        5.5299014909
 H       -11.9631745159        2.0866647465        6.5495340823
 H       -12.2767275028        6.8743759551        3.7508249848
 H       -13.1452836570        5.5837848133        3.2588073094
 H       -13.2833240386        6.8755437683        1.3733062774
 H       -11.8907733939        5.7811722553        0.9481410660
 H        -8.8574817894        9.1438439337        0.1738126063
 H        -8.0033387655        8.1808365367       -0.9128970391
 H        -8.8882190033        6.5700141823        1.4686447379
 H        -7.5906960102        7.7274296900        1.7292623579
 H        -8.8271710504        2.9966876659        2.2439192246
 H        -7.2112471946        2.1843773660        1.8948516270
 H        -9.5633944830        1.7115904294        0.0501004151
 H        -9.1044784247        0.6429891635        1.3290729385
 H        -6.6329524195        1.3137022612       -4.2887963938
 H        -5.7451973895        1.2707747134       -2.7053577531
 H        -5.1457676768        3.3583496262       -3.9417103355
 H        -6.3006430121        3.8100211115       -2.5986241662
 H        -9.5217872145        4.5392898121       -6.2109807318
 H       -10.4557646010        3.0971261054       -6.0544416584
 H        -9.7723398865        3.5331539349       -7.5637846538
 H        -7.5810053441        5.5175724797       -6.9009256824
 H        -7.3738911833        4.2032827820       -8.1217231166
 H        -5.9388546767        4.9519520193       -7.4179775308
 H        -6.0502628870        2.0054440912       -7.3430248562
 H        -5.5497190415        1.9656908830       -5.6818462653
 H        -4.8332990628        3.1147736590       -6.7860711809
 H        -7.5813028608       -0.9484443011       -3.3856554461
 H        -8.7289640111       -1.5240629451       -2.2448160534
 H        -7.0568267110       -1.2823872857       -1.7742528837
 H       -10.2838900448        0.1031047697       -2.9422964850
 H       -10.3513450986        1.5267377337       -1.9011733763
 H       -10.4235340270       -0.0411983811       -1.0441301631
 H        -4.5602094307        4.9541061518        0.9574083052
 H        -5.3328281810        4.4674772836       -0.5540212506
 H        -5.1834262011        3.3588116732        0.8299396823
 H        -5.9879476794        5.7142057220        2.9067270519
 H        -6.6342439971        4.0197502507        3.1092839726
 H        -7.7104444000        5.5603152786        2.9089062225
 H       -13.5953868386        8.4269850137       -0.4581531713
 H       -12.9007224381        6.8556896747       -1.0126518234
 H       -12.8046465017        8.2425466198       -1.9974376614
 H       -11.2863069498       10.3101514378       -1.0701754967
 H       -10.4720748378       10.1564772588        0.4213985203
 H       -12.2111003299       10.2119757112        0.4949280671
 H       -11.1629814816        5.2037558105        6.9836436944
 H       -12.3675869595        5.8916521426        5.7193572404
 H       -10.7140681209        6.5345193940        5.7986194465
 H        -9.5050798575        3.4395435461        5.9793572741
 H        -8.6099847270        4.7539688600        5.0312992390
 H        -9.1287377885        3.2669073705        4.3199110378
 H       -14.6225661933        0.5493482391        0.4361347572
 H       -13.6105259259        1.9404610286        0.6898792382
 H       -15.0058550965        1.5931950704        1.7489283206
 H       -15.0264063387        0.2674225981        3.6622066079
 H       -14.0287681990       -1.3027614041        3.6938223694
 H       -15.2583195290       -0.9405720807        2.4232478048
 Na       -8.4841725535        5.1978263778       -2.1881789528
