117

 C       -12.5869372718       -2.1395549912        1.5269256748
 C       -12.3762261778       -0.5830412193        1.5325551979
 O       -11.4761774963       -0.0515843088        0.9163361812
 C       -13.3891890055        0.3329780980        2.2736676921
 C       -12.5700913778        1.2781294619        3.2008969911
 O       -11.8418731546        2.0831846304        2.6746062725
 C       -12.6039992071        1.0983822012        4.7103991017
 C       -11.7595409280        2.1530938197        5.3579450172
 C       -12.0885630350        3.5438472995        4.9032589643
 O       -13.2275151484        3.7393097532        4.3877403211
 C       -11.0388351532        4.6530253740        4.9150568781
 C       -10.9587467107        5.4862131338        3.5396256135
 O        -9.9261065845        5.3995978027        2.8839134419
 C       -12.2490794966        6.0438084410        2.9725473758
 C       -12.2362281975        6.4252929921        1.4521113388
 C       -11.4518081807        7.7180673717        1.2817960101
 O       -10.9694142627        8.3812048170        2.1567238308
 C       -11.3076064770        8.2656366850       -0.2548033289
 C        -9.9493104196        7.6819102234       -0.7282270729
 O        -9.9843439654        6.7044312393       -1.4133416798
 C        -8.5524820020        8.1910084287       -0.1607433489
 C        -7.9734069453        7.2047641442        0.9206891680
 C        -7.1174700256        6.1156143742        0.2445022747
 O        -6.7683884477        6.1561256605       -0.9138712885
 C        -6.7420617468        4.8337481735        1.0800166324
 C        -7.8143287013        3.6876400345        0.7385464577
 O        -8.3851027906        3.7590803923       -0.3362897098
 C        -7.8527028511        2.4472542229        1.6646225571
 C        -8.7319394180        1.3101725602        0.9182387497
 C        -7.9604642525        0.7222697316       -0.2336988151
 O        -6.7689913850        0.5139499642       -0.1334221213
 C        -8.5886870714        0.5536692334       -1.6510826627
 C        -8.2355221066        1.8951320527       -2.5297535421
 O        -8.9882903116        2.8352786448       -2.6755703647
 C        -6.8887405669        1.7466894588       -3.1042237775
 C        -6.2234555159        3.0850811532       -3.6217195254
 C        -6.9910502237        3.8505713524       -4.7520233950
 O        -7.7919890516        4.7869069744       -4.5589490320
 C        -6.9774704302        3.4128745312       -6.2348953529
 C        -8.3858769536        2.5653556122       -6.3376399139
 O        -8.3312164119        1.4962036694       -5.7627548332
 C        -9.6632924248        3.3090625334       -6.6666958280
 C        -6.9494269415        4.6751362558       -7.1341949495
 C        -5.8998671355        2.4638322053       -6.6918784583
 C        -7.9625900489       -0.6474270982       -2.3296857777
 C       -10.1153963233        0.2892758996       -1.6657709709
 C        -5.3371919239        4.3424525876        0.5727879684
 C        -6.7670741195        5.1942650985        2.6374627946
 C       -12.4411585994        7.7121805242       -1.2151140027
 C       -11.1875969840        9.8409588772       -0.1677666351
 C       -11.3421078433        5.5625168206        6.1134192710
 C        -9.6241850435        4.0778996419        5.2554520498
 C       -14.1869519416        1.2287592884        1.2423037132
 C       -14.4309821940       -0.4078996888        3.1700018429
 H       -12.5961025710       -2.4594706524        2.5724831899
 H       -11.8616893081       -2.5738204345        0.9204855426
 H       -13.5386706477       -2.6387116696        1.2233170244
 H       -12.2194343250        0.1087288264        4.9118813466
 H       -13.7011121045        1.1896735561        5.0955484692
 H       -10.6442991648        1.9723171088        5.1370907288
 H       -11.7939972065        2.0254810985        6.4649218311
 H       -12.6045160051        6.8382515221        3.6235130279
 H       -13.0731354471        5.2799609757        3.2008507626
 H       -13.2509428136        6.5983206822        1.0918822367
 H       -11.7393983258        5.6595572267        0.8259769769
 H        -8.4796987245        9.1826937763        0.1157380888
 H        -7.9831221786        8.1159446810       -1.1165218605
 H        -8.7359905690        6.7365079185        1.5358906915
 H        -7.3451933921        7.9022741287        1.5250332322
 H        -8.4650250740        2.6359321052        2.5887203379
 H        -6.7273674952        2.2660475617        1.7166106440
 H        -9.6819264210        1.7107033062        0.5463866914
 H        -9.0575463245        0.5788590866        1.6608738879
 H        -6.8687190151        1.0352289219       -3.8945710582
 H        -6.2142883080        1.4263505767       -2.3191654243
 H        -5.2664116546        2.7231826759       -4.0553314870
 H        -5.9852101261        3.7916613497       -2.8545298274
 H       -10.4370303713        3.3652997671       -5.8903360459
 H       -10.1454134568        2.8994984930       -7.5512942857
 H        -9.4400643696        4.3900567604       -6.9609534184
 H        -7.7573455298        5.3726709590       -6.9462676902
 H        -6.9052884365        4.4253542475       -8.1494304693
 H        -6.0435612084        5.1999640984       -6.8452749977
 H        -5.6124045238        2.6017452577       -7.7247777527
 H        -6.1690161278        1.4413378970       -6.4278694995
 H        -4.9211272749        2.6489866277       -6.1837834401
 H        -8.4948500893       -0.8035017232       -3.2626593330
 H        -8.0842189793       -1.5369918292       -1.7285660963
 H        -6.9116273587       -0.5006058415       -2.7327083202
 H       -10.4581037448        0.1920307581       -2.6760398013
 H       -10.6324738954        1.0738625394       -1.1805360470
 H       -10.3125739242       -0.6542047600       -1.2185259864
 H        -4.5568849492        5.0384478224        0.6198483115
 H        -5.3621989950        4.0204483901       -0.4502166527
 H        -4.9465870682        3.5646567808        1.1903724460
 H        -6.2511270748        6.0890463579        2.7277706396
 H        -6.1419449190        4.5355372081        3.2488937491
 H        -7.7355359546        5.4135987628        3.0034694660
 H       -13.4636920897        7.8744064416       -0.8249790116
 H       -12.3091647884        6.6071611688       -1.3690277357
 H       -12.2752928827        8.2004587386       -2.1859715347
 H       -10.6244895042       10.3316262146       -1.0220642344
 H       -10.7184314531       10.0554085025        0.7874759615
 H       -12.1420258073       10.3018294122       -0.1812899243
 H       -11.4673284981        4.9928208537        6.9951529031
 H       -12.3147280895        6.0138910175        5.9693306376
 H       -10.5505253362        6.2991028449        6.1738047462
 H        -9.5661126566        3.5460798899        6.1847413122
 H        -8.9112942418        4.9445420307        5.3374161758
 H        -9.2604841317        3.4164725685        4.5266285209
 H       -14.8969136903        0.5913594227        0.7090959498
 H       -13.5053594618        1.7298361152        0.5100514563
 H       -14.7344685101        1.9915582609        1.8329698905
 H       -15.0677396306        0.3402110014        3.5463842985
 H       -13.9061791551       -0.9735949895        3.9123316539
 H       -14.9854783220       -1.1203655489        2.5661766843
 Na       -8.2723290384        5.2561612144       -2.2875292609
