117

 C        -9.9659050239       10.9522449655       -3.6415250693
 C        -8.6095948308       10.2693060963       -3.7887879958
 O        -8.4594047941        9.1345822986       -3.2400835563
 C        -7.2601072649       10.8733387028       -4.2301261702
 C        -6.7957261204       11.3844148971       -2.7653023435
 O        -7.3718968901       12.3365444351       -2.3224035801
 C        -5.8941793566       10.5664775447       -1.9256480500
 C        -6.5905661385        9.6725653575       -0.8609767085
 C        -5.8777599999        8.4123306919       -0.5018423190
 O        -5.1540531078        7.8008054759       -1.3084681452
 C        -6.0131780211        7.8788970794        0.9442706054
 C        -7.4543852535        7.4805987876        1.3310793932
 O        -8.0966416446        8.1212645168        2.1425361942
 C        -8.0112544886        6.2540703241        0.4994032444
 C        -9.4664625832        6.6019013798        0.1565570662
 C       -10.1805781464        5.2103166606        0.0055881738
 O        -9.6392531813        4.1587410666        0.4085731154
 C       -11.4900815331        5.1876305357       -0.8719029005
 C       -12.5152577977        4.0555150929       -0.3878691152
 O       -12.2985278221        2.8727360063       -0.6554699443
 C       -13.8257425527        4.5549553540        0.2265727051
 C       -14.5015334785        3.4964666553        1.1903702479
 C       -13.5050617624        2.6848728055        2.0144065034
 O       -12.4157081149        3.1433300451        2.3000679735
 C       -14.0299436935        1.3247846611        2.6110458817
 C       -12.8523477714        0.1153106739        2.4479339168
 O       -11.7249107463        0.4937340642        2.1238774167
 C       -13.2173306122       -1.3062819723        2.8788508068
 C       -12.2994431698       -2.2933273698        2.0881534422
 C       -12.5428731368       -2.5375804848        0.5709403931
 O       -13.2158774623       -1.7437054561        0.0199555522
 C       -11.8925205791       -3.6922466120       -0.2403276828
 C       -10.3167873335       -3.5534085937       -0.2222974657
 O        -9.7028566922       -4.1599882723        0.6260374542
 C        -9.7657952245       -2.5757196584       -1.2104747129
 C        -8.5247166891       -1.8132330828       -0.8672909496
 C        -8.8121160207       -0.4965878074       -0.0345998965
 O        -9.9760842099       -0.0647684966        0.0860760938
 C        -7.5326073625        0.2811215561        0.4685606195
 C        -7.6575067351        0.8100853959        1.9421904965
 O        -8.6707397407        1.3026588048        2.3004118157
 C        -6.4669523151        0.6046025024        2.8116194407
 C        -6.2654682766       -0.5190425210        0.2272217936
 C        -7.4499999493        1.5028932085       -0.4540059823
 C       -12.3374462109       -4.9949350936        0.5053229315
 C       -12.4708228971       -3.6489161406       -1.6724606057
 C       -14.2127672068        1.5564008090        4.1829877718
 C       -15.3443745696        0.7715306286        2.0479254049
 C       -12.0848036262        6.6026441677       -1.0006900749
 C       -11.0119486337        4.8735648183       -2.3247057754
 C        -5.0621153186        6.6195241753        1.0584436209
 C        -5.5187607683        8.9963871427        1.9421933749
 C        -6.2830199454        9.9354115784       -4.8342249677
 C        -7.3873265439       12.1746195235       -5.1376259272
 H       -10.5533654010       10.9272684468       -4.5422145763
 H        -9.6792005220       11.9921520955       -3.3054135306
 H       -10.3575620157       10.3818448957       -2.8396731957
 H        -5.2145916058       11.1888733585       -1.4691518334
 H        -5.1265173101        9.9441559303       -2.4784297318
 H        -7.5648746708        9.4440501728       -1.3457265854
 H        -6.8324274413       10.2600696975        0.0413406055
 H        -7.9251891863        5.2535782152        0.9241079312
 H        -7.3986932642        6.2009029255       -0.4747706459
 H        -9.6028220839        7.2457893960       -0.7798687006
 H        -9.9101713392        7.2032940952        1.0063331385
 H       -14.5874277383        4.9604298111       -0.5297701112
 H       -13.6902219688        5.3607201076        0.9590027530
 H       -15.1212119179        2.7939739258        0.5769862035
 H       -15.2301386436        3.9298560800        1.8501556615
 H       -14.2687837305       -1.5315866023        2.6344055270
 H       -13.1561915617       -1.3688879833        3.9725297294
 H       -11.9989330429       -3.1591447447        2.6956264812
 H       -11.1979345311       -1.9660227838        2.0484241503
 H       -10.5866699233       -1.9178852649       -1.5292897218
 H        -9.5573021015       -3.1444152871       -2.1343730273
 H        -8.1181996071       -1.3653090928       -1.7020312833
 H        -7.8243754117       -2.4288122750       -0.3088806584
 H        -6.0159636798       -0.4232827065        2.6934017585
 H        -6.6414301755        0.7132882935        3.7922489489
 H        -5.6053648166        1.2440760164        2.5004443796
 H        -6.1341222667       -0.7322878937       -0.7579534944
 H        -6.2893993270       -1.5166286344        0.7439233636
 H        -5.3618281274       -0.0024422820        0.5337531102
 H        -8.4588243027        1.9887197289       -0.3667013103
 H        -7.3619418655        1.1296791464       -1.4358601235
 H        -6.7157740765        2.2717551687       -0.1153463386
 H       -13.1953626302       -4.8085740250        1.1296829668
 H       -11.5397815517       -5.3866444984        1.1199137194
 H       -12.4696429115       -5.6654238631       -0.3419678817
 H       -12.2694101925       -2.6278960700       -2.1325270576
 H       -13.5579527577       -3.8638252945       -1.6782610918
 H       -12.0364487253       -4.4899051141       -2.2777986106
 H       -14.6983051375        2.4701139690        4.4416281698
 H       -13.2358912242        1.5411287311        4.6502917564
 H       -14.7111062980        0.6655821761        4.6038882183
 H       -16.1434091596        1.4143327353        2.4136667868
 H       -15.5112047663       -0.2843404518        2.2733005345
 H       -15.2217018977        0.8108247578        0.9882134442
 H       -12.9980742843        6.6549442760       -1.5924728320
 H       -11.3704552136        7.3229543378       -1.5254510336
 H       -12.3210295863        7.1075311326       -0.0929969743
 H       -10.5143674785        3.8903982544       -2.3608834797
 H       -10.2692576343        5.5617914906       -2.6891759702
 H       -11.9700090506        4.8646379273       -2.8863267533
 H        -4.1139744156        6.7910846025        0.5286231001
 H        -5.5302925135        5.7431569773        0.6601675426
 H        -4.8978025912        6.4420194981        2.1242243145
 H        -6.2767062619        9.7626897249        2.1515744894
 H        -4.5757532605        9.4131053308        1.6258440582
 H        -5.4183270405        8.6276061869        2.9898078360
 H        -6.2192444462        8.9906262530       -4.3798869969
 H        -5.2350263631       10.3135732140       -4.9522331802
 H        -6.4575066539        9.6555552059       -5.8489244662
 H        -7.1871453472       12.0332653191       -6.1975057596
 H        -6.6026018404       12.8708919856       -4.8808773001
 H        -8.3818399672       12.5905604676       -5.0707281490
 Na      -10.6980470234        2.2098166941        0.7037277543
