117

 C       -10.7995504270        0.5219979874       -7.3723288818
 C       -10.9085947445        1.9417614925       -6.7349178854
 O       -10.0455693742        2.4393431680       -6.0173552294
 C       -12.2053233158        2.7255922518       -7.1351194795
 C       -12.3721856885        3.9294439545       -6.2132068162
 O       -13.3802464057        3.9330728294       -5.5054750368
 C       -11.1598671840        4.9935103254       -5.9665511901
 C       -11.7377701232        6.1334160998       -5.0756231100
 C       -10.6525610368        6.8489587725       -4.3018854634
 O        -9.6588860235        7.1951212604       -4.8631916440
 C       -10.8267721922        7.1121006528       -2.6813629715
 C       -10.1536434059        5.9356695577       -1.8425388037
 O       -10.8168340950        5.5578417988       -0.8650767260
 C        -8.9428524897        5.2021371173       -2.2341852601
 C        -7.6408633910        5.9423161288       -2.2815732301
 C        -6.5864396960        4.9541687679       -1.7665724361
 O        -6.7460783040        3.7227735628       -1.7174934670
 C        -5.2544832502        5.5640172543       -0.9893231548
 C        -5.9391883689        6.0766227855        0.3404267728
 O        -6.7067784060        7.0212903857        0.2725637770
 C        -5.6247414895        5.3232914946        1.6544583405
 C        -6.4928556878        5.6272229974        3.0068174404
 C        -8.0471483390        5.5144058964        2.6592657301
 O        -8.3985681361        5.0564391632        1.5532369480
 C        -9.1381057762        5.8794283938        3.6895511569
 C       -10.0449971519        4.5612880906        4.0462127513
 O       -10.8545628652        4.1007633286        3.2322642060
 C       -10.1565278116        4.2351609545        5.5398198120
 C        -9.9229863105        2.7289806812        5.8311678608
 C        -8.7033404768        2.2899372928        5.1604098511
 O        -8.0953639195        3.1223550744        4.5007651352
 C        -8.1158790514        0.8266960422        5.3656754437
 C        -9.0272131389       -0.0474133836        4.4065042139
 O       -10.0833176991       -0.4695798969        4.8669447702
 C        -8.5775166387       -0.2095921933        2.9448535086
 C        -9.6875953959       -0.5796135858        1.9263746580
 C       -10.2885553906        0.6308192370        1.1995468091
 O        -9.6612010328        1.6689821498        1.1263775092
 C       -11.7584790355        0.5504346055        0.5228863451
 C       -12.6434946971        1.5786537609        1.3692402630
 O       -12.4872881187        2.7421324393        1.1992271406
 C       -13.6750848951        1.0650749335        2.3467883209
 C       -11.7246157297        1.0712003881       -0.9371425556
 C       -12.3471457963       -0.8630085066        0.5110399259
 C        -6.5731571647        0.8565430535        5.0001272574
 C        -8.3828268317        0.4831710719        6.8871242728
 C        -8.5681662646        6.5365844740        4.9749969022
 C        -9.9486241952        6.9762018881        2.9036730160
 C        -4.1602865181        4.5164509087       -0.8075263702
 C        -4.7187055689        6.8386823853       -1.6482435703
 C       -10.0922319031        8.5377875228       -2.4982156536
 C       -12.3370310358        7.3884778699       -2.3598428492
 C       -12.1964405659        3.1697549318       -8.6396029465
 C       -13.3496255079        1.6664811472       -6.9553952417
 H       -11.3549103476       -0.2285046386       -6.7907850979
 H        -9.7138450457        0.2224070121       -7.2340142156
 H       -11.0026842446        0.5109222646       -8.4655101374
 H       -10.8588724611        5.5164161355       -6.8477099938
 H       -10.3760142229        4.4619103793       -5.4968994678
 H       -12.5460381955        5.7816165789       -4.4078997286
 H       -12.1962607256        6.8127591020       -5.8418803723
 H        -9.2655375290        4.6327327293       -3.2101078278
 H        -8.7576772311        4.3869774977       -1.5618646533
 H        -7.6600092931        6.8402409625       -1.7020134589
 H        -7.1394316704        6.3502152248       -3.1887240017
 H        -4.5728264675        5.4947798731        1.8422072306
 H        -5.6125325495        4.2362427328        1.4722453498
 H        -6.1150672505        6.6476396039        3.3671745419
 H        -6.2500363246        4.7955839597        3.6442088091
 H       -11.1291012975        4.4638797576        5.9583799772
 H        -9.4184740507        4.7597630531        6.1819880150
 H       -10.7477731028        2.0799427186        5.5265958693
 H        -9.9541774209        2.5612228015        6.9268040969
 H        -7.8868550969       -1.0594469112        2.9383238784
 H        -8.1166279726        0.6952793970        2.5971546873
 H       -10.4356379569       -1.2914824624        2.3661095798
 H        -9.2578901666       -1.1996205044        1.1362923588
 H       -14.0526833500        1.9496985602        2.7944339085
 H       -13.3492107577        0.3917085849        3.1334801733
 H       -14.4995396293        0.5521043969        1.9598657565
 H       -12.8277260570        1.3390381521       -1.1702429490
 H       -11.4672245551        0.3704433728       -1.6768360634
 H       -11.2156813948        1.9652967154       -0.9589156152
 H       -13.3038555468       -0.8737963090        0.0491654434
 H       -12.4834001094       -1.2763716631        1.5222360971
 H       -11.7124429398       -1.4686794497       -0.1303039489
 H        -6.1042703032        1.1766483817        5.9281778678
 H        -6.3366258900        1.3236348017        4.1221347727
 H        -6.2955329677       -0.1529620329        4.7912002735
 H        -7.5962792990       -0.2138188842        7.2062014765
 H        -9.2308830002       -0.2490881742        6.8859551640
 H        -8.4608801195        1.3327465703        7.5517961137
 H        -8.0694484901        5.8890173196        5.7011400720
 H        -9.2952746590        6.9752545287        5.6141587478
 H        -7.8269791930        7.2866453076        4.6426407248
 H       -10.4789705869        6.4837351387        2.0903261169
 H        -9.2098071100        7.7553962641        2.7290696299
 H       -10.7489921178        7.3682377689        3.5486567528
 H        -3.3592328644        5.0065632939       -0.2508523846
 H        -3.7704964722        4.1953880382       -1.7663795649
 H        -4.4711088416        3.5892947777       -0.2980288850
 H        -5.5029419632        7.6030869708       -1.6019209189
 H        -4.3412481208        6.6617810830       -2.6638045026
 H        -3.9189637939        7.3803327252       -1.1329131861
 H       -10.5241369744        9.2289896461       -3.2944735515
 H        -9.0114101871        8.4429854566       -2.6369587502
 H       -10.2291490676        9.0964291558       -1.5517651865
 H       -12.3682144966        7.7715205308       -1.3578155868
 H       -12.7942873324        6.4395745694       -2.3731779379
 H       -12.6593049874        8.1313352794       -3.0990240736
 H       -13.1272763681        3.6843745205       -8.8844788918
 H       -12.1695264203        2.2992585755       -9.3075312387
 H       -11.4086949486        3.9006049886       -8.7840008992
 H       -13.1673860352        0.9134756028       -6.1344784654
 H       -13.4726015967        1.0721050455       -7.9343724703
 H       -14.2507314686        2.2487589925       -6.7371717660
 Na      -10.5046718446        3.9696514690        0.8344850190
