117

 C       -10.5918522356        0.5249455862       -7.6659090941
 C       -10.9524443051        1.7708290050       -6.8426267431
 O       -10.1837504615        2.1653716796       -5.9673013563
 C       -12.2649627501        2.7491391982       -7.2064958674
 C       -12.4663818901        3.8185039791       -6.0587095279
 O       -13.4609519747        3.8107682733       -5.3776695785
 C       -11.2552005725        4.7965598842       -5.9308601361
 C       -11.6763598441        6.0687530727       -5.1169388289
 C       -10.5716383804        6.8256574429       -4.3284429367
 O        -9.4834242763        7.0381587522       -4.8427320741
 C       -10.8318205296        7.1206505577       -2.7772054239
 C       -10.3255263178        5.9535985305       -1.9288384194
 O       -10.9281427747        5.6046194802       -0.9302510985
 C        -9.0277051564        5.1454238943       -2.3810283336
 C        -7.6868621464        5.8216593307       -2.1003803955
 C        -6.5388170193        4.7942801629       -1.5945226712
 O        -6.5346872198        3.6267930057       -1.7968551019
 C        -5.2785767456        5.5359010495       -0.8912268777
 C        -5.7559996590        5.9619492312        0.5491583959
 O        -6.5847423054        6.8764555002        0.6216737201
 C        -5.4898381349        5.2318206188        1.9253750608
 C        -6.5311862985        5.6673408685        2.9415776273
 C        -7.9446909861        5.3935539050        2.5245934340
 O        -8.2978812779        4.8574611346        1.5071298971
 C        -9.0554526925        6.0484135187        3.6747339496
 C        -9.9445181881        4.8167627748        4.1459523356
 O       -10.5783748023        4.1971091784        3.3138911869
 C       -10.2126296954        4.4641620778        5.6051786780
 C        -9.9945159178        2.9241511598        5.6746337695
 C        -8.6624518325        2.4726394521        5.1228917200
 O        -8.0473763543        3.1474356307        4.2972674561
 C        -8.1704151030        0.9683031148        5.3151842789
 C        -9.0920417243        0.1513021562        4.3389009336
 O       -10.1074533228       -0.3538312084        4.7482303716
 C        -8.6327634431       -0.1068940137        2.9153579334
 C        -9.8760421788       -0.5062022277        2.1037127694
 C       -10.4135618031        0.6713566395        1.3255211012
 O        -9.7300997244        1.6698500788        1.1303882658
 C       -11.8551990131        0.5909570624        0.6767115901
 C       -12.7470611325        1.6370664430        1.4550002187
 O       -12.6218741890        2.8652778085        1.2780671012
 C       -13.8520814071        1.1188143397        2.3189437148
 C       -11.7705579781        1.1136015430       -0.7824902089
 C       -12.3795003560       -0.8276698363        0.7995160402
 C        -6.6689158531        0.8733611676        4.8164923596
 C        -8.2304464533        0.4648974414        6.7411844291
 C        -8.4562009580        6.9203729453        4.8340427880
 C       -10.0755937996        6.8759170398        2.7699952843
 C        -4.1356976037        4.4674242359       -0.8830039718
 C        -4.8386667640        6.7381370679       -1.7809218869
 C       -10.0062730675        8.3655208183       -2.4152822626
 C       -12.3696646805        7.2919877734       -2.4750209074
 C       -12.0235981084        3.2500101427       -8.6112058532
 C       -13.4987206734        1.8376425386       -7.2010636661
 H       -11.0197012297       -0.3601818983       -7.2341950109
 H        -9.5438512502        0.3796497810       -7.6398212576
 H       -10.9124334438        0.6823622856       -8.6883807114
 H       -10.9107890515        5.0183712756       -6.9638619541
 H       -10.4283631174        4.3363623670       -5.3198792691
 H       -12.4488545380        5.7057521804       -4.4307858654
 H       -12.1746364621        6.7635300926       -5.7825347422
 H        -9.0775074914        4.9195146376       -3.3751094039
 H        -9.0693812453        4.1358390940       -1.8843210601
 H        -7.7800284455        6.6564273317       -1.3292912007
 H        -7.3866192193        6.4869538254       -2.9296304831
 H        -4.4507835652        5.3109520767        2.3550037103
 H        -5.5746361575        4.1352930970        1.7950332330
 H        -6.3587661957        6.6838147679        3.0848312434
 H        -6.3263601159        5.0067302083        3.8113052233
 H       -11.3076285781        4.5137532169        5.8106146456
 H        -9.7371086897        5.0345340045        6.3760276023
 H       -10.8233232423        2.5914100555        5.0033906883
 H       -10.3266878102        2.4361124493        6.5850163282
 H        -7.9903687906       -0.9746737225        2.9525444063
 H        -8.1731148459        0.7433463597        2.3738856600
 H       -10.6196075653       -0.9315496330        2.7326797252
 H        -9.6760602799       -1.3228346070        1.3991321897
 H       -14.5669321286        1.8577935294        2.6892497338
 H       -13.4859478742        0.5733292807        3.1815184907
 H       -14.4638675580        0.2973389921        1.8035122232
 H       -12.7218751265        1.1595636595       -1.2706336961
 H       -11.1555637926        0.3112404261       -1.3025715100
 H       -11.2706561997        2.1690592687       -0.8573409080
 H       -13.3449779313       -0.9091291675        0.2632829915
 H       -12.5789875159       -1.1091316410        1.8450716710
 H       -11.6803194745       -1.5269360706        0.3113225509
 H        -6.0832377991        1.4247869505        5.5159924789
 H        -6.5819775131        1.1079873394        3.7251616455
 H        -6.3486470774       -0.1600551861        4.7696518335
 H        -7.6213004844       -0.4095627426        6.8521085024
 H        -9.1878363623        0.1990746680        7.0874604333
 H        -7.7788424901        1.2662660643        7.3228483647
 H        -7.5833628653        6.4741525114        5.3543263194
 H        -9.1478068744        6.9432280615        5.6799048077
 H        -8.1357205286        7.8607702469        4.4933981569
 H       -10.4872833494        6.2430827401        1.9824524763
 H        -9.4468300126        7.6738372755        2.4276714942
 H       -10.9003557069        7.2239887667        3.3391951294
 H        -3.1619776258        4.8933045339       -0.5922104908
 H        -4.0734225697        3.9150286016       -1.8487328154
 H        -4.4347448383        3.7177726418       -0.1533378111
 H        -5.3962908772        7.6851681349       -1.6878196928
 H        -4.7021929946        6.4651238780       -2.7896564610
 H        -3.8113906313        6.9701686617       -1.4743407225
 H       -10.4791447002        9.2301424049       -2.7834849685
 H        -8.9534877228        8.2862206432       -2.6651225651
 H        -9.9753244045        8.4713445181       -1.3345147340
 H       -12.4850998709        7.9634513845       -1.6217511077
 H       -12.7673822944        6.2987135713       -2.2513513621
 H       -12.6829589931        7.7473081302       -3.3725737297
 H       -12.6739839365        4.0686520424       -8.9353849594
 H       -12.1962186654        2.4247441698       -9.2682055226
 H       -11.0164042324        3.6329569245       -8.7101660697
 H       -13.6196476244        1.5561603567       -6.2038216458
 H       -13.2718007365        1.0254351227       -7.7959914193
 H       -14.4141906393        2.3058179178       -7.5110029154
 Na      -10.3589576372        3.9664593055        0.9465988321
