117

 C       -10.6715354136        0.7072757537       -8.0076668571
 C       -11.0403114123        1.6866993530       -6.9814793700
 O       -10.5021656434        1.6097933658       -5.8936320909
 C       -12.1591916682        2.7042180621       -7.3343209727
 C       -12.3703081367        3.7416145379       -6.0588006364
 O       -13.2976752317        3.7071257938       -5.3080880656
 C       -11.2384564505        4.6771503136       -5.7999559511
 C       -11.7208976787        5.9221859678       -5.0217248099
 C       -10.5694345581        6.4644393612       -4.2581224097
 O        -9.4723167583        6.6415460889       -4.7959503282
 C       -10.7659181689        6.8886091034       -2.7807069761
 C       -10.3006964733        5.6781524386       -1.8339109432
 O       -10.9506481415        5.4791245566       -0.8350133713
 C        -9.0889477820        4.9382242231       -2.2168419105
 C        -7.9176981670        5.5625674939       -1.4712135214
 C        -6.6272301823        4.7151738702       -1.5079314844
 O        -6.6779418858        3.5740665160       -1.8939103172
 C        -5.3739244261        5.4486566151       -0.8698884042
 C        -5.7896290616        5.9761022950        0.5923815495
 O        -6.2143153560        7.0922468030        0.7251839896
 C        -5.6314514937        5.0458498494        1.8024008894
 C        -6.5116740638        5.5078012550        2.9607679318
 C        -7.8851399943        5.4126791530        2.5495016227
 O        -8.2595561969        4.6601328901        1.6781224571
 C        -9.0173133047        6.1210390145        3.3856690069
 C        -9.9102885346        5.0116210902        3.9576240602
 O       -10.5447147546        4.2624544103        3.2381347089
 C        -9.8541421516        4.6941962685        5.4850361170
 C        -9.7370182741        3.1807241990        5.7007647226
 C        -8.4730445588        2.6262049149        5.0633655635
 O        -7.7578028666        3.2730482788        4.3462495992
 C        -8.0837551997        1.1756405373        5.2547352986
 C        -9.1418477307        0.3178251422        4.3183088207
 O       -10.2308867741        0.0231498180        4.7256740159
 C        -8.6912871811       -0.1263521011        2.8922789087
 C        -9.9569300188       -0.4780840548        2.0121142798
 C       -10.5917539537        0.7540511541        1.3485069775
 O        -9.9362145802        1.7707298604        1.3335623606
 C       -11.9778119306        0.6912730862        0.7428964687
 C       -12.8854761187        1.8236128302        1.4884279411
 O       -12.4690176884        3.0148857792        1.4962363624
 C       -14.1147903987        1.4493215797        2.2003856178
 C       -11.9348649420        1.0434955524       -0.7591431287
 C       -12.6957397146       -0.6634159089        0.8487105220
 C        -6.6117792105        0.9795562047        4.7239052393
 C        -8.1512665766        0.6535201047        6.7507198719
 C        -8.5765178993        7.0721016195        4.4731892067
 C        -9.8744960853        7.0084145305        2.4372313703
 C        -4.2560432860        4.3766032613       -0.6626601476
 C        -4.8614347339        6.7043706079       -1.6303829688
 C        -9.7359533806        7.9862687398       -2.4902736560
 C       -12.3192052173        7.2113391868       -2.3665851360
 C       -11.7849940601        3.4648850818       -8.5848355865
 C       -13.3989369245        1.8550440093       -7.5000709761
 H       -11.1008609287       -0.3117897494       -7.6732431130
 H        -9.5889497349        0.6055529188       -8.1024035819
 H       -11.1074946014        0.9138992664       -9.0056039427
 H       -10.7486201413        4.9417223881       -6.7184374397
 H       -10.4826884313        4.1327265033       -5.2694675872
 H       -12.6143373964        5.6654890303       -4.3631460977
 H       -12.1114705380        6.6661777536       -5.7325228057
 H        -8.9319010943        4.8362439452       -3.2927600112
 H        -9.2360413953        3.9174799119       -1.7737318193
 H        -8.2733772503        5.8716750000       -0.3952742233
 H        -7.7982343634        6.5232151698       -1.8910774841
 H        -4.5659715412        4.9635938872        2.0317051947
 H        -5.9176177439        4.0147458787        1.6102379428
 H        -6.1751389872        6.5128773452        3.2077390531
 H        -6.3879134663        4.7598568151        3.8279689899
 H       -10.7537648016        5.1707262669        5.9188004782
 H        -8.9896438557        5.0432809381        6.0521385236
 H       -10.6450496073        2.6871389175        5.2808183504
 H        -9.7774580683        2.9263348306        6.7784426883
 H        -8.0780831348       -1.0592817791        2.9951137266
 H        -8.1453439711        0.6113022275        2.3684513298
 H       -10.6713107695       -1.0068774126        2.6425938068
 H        -9.7270673019       -1.2493081102        1.2163384361
 H       -14.6138000948        2.2513510417        2.7018434585
 H       -13.8802783863        0.7551796636        2.9629590911
 H       -14.8505660994        0.9515144307        1.5963694974
 H       -12.8379083865        0.7891458687       -1.1133739674
 H       -11.0786438475        0.5815938187       -1.2668075334
 H       -11.8571069730        2.1407711090       -0.9593026946
 H       -13.6955699092       -0.6569569676        0.3334789993
 H       -12.8035376080       -0.9456740924        1.8489427286
 H       -12.0594213205       -1.4271538339        0.4511556257
 H        -5.9455834938        1.5352645546        5.3193703998
 H        -6.5933362359        1.4519089207        3.6908727859
 H        -6.2919282028       -0.0548072862        4.6089216184
 H        -8.1381145583       -0.4603829704        6.7758549045
 H        -8.9703789561        1.0905475741        7.3122422405
 H        -7.2153481519        0.9657868337        7.3258762642
 H        -8.0658029611        6.6199725997        5.2922318076
 H        -9.4406924005        7.7167161445        4.8201899842
 H        -7.8003466712        7.7719783314        4.0991828856
 H       -10.2953380632        6.3899683988        1.6539761810
 H        -9.1903047175        7.7488386684        1.9495172850
 H       -10.6313197431        7.4694866214        3.1088039000
 H        -3.5771657776        4.7083689841        0.1122255102
 H        -3.7153008179        4.1774455003       -1.5777559755
 H        -4.7467820837        3.4851167577       -0.3113139638
 H        -5.6257974661        7.4657282123       -1.7389757106
 H        -4.6551051143        6.3943899729       -2.6947936300
 H        -3.9170866450        7.0794872539       -1.2220808592
 H       -10.0893409840        8.9249892410       -2.8845723548
 H        -8.7519718958        7.7143201624       -2.9846085225
 H        -9.4678720977        8.0950983639       -1.4223204281
 H       -12.2908757267        7.1648353214       -1.2964372695
 H       -12.8882331349        6.3469910133       -2.7403423443
 H       -12.6063730563        8.1681005545       -2.7361382738
 H       -12.3268990459        4.3885749509       -8.7073674138
 H       -11.9249757308        2.8313475742       -9.4958006674
 H       -10.6956558583        3.6811529291       -8.6049370386
 H       -13.7529437461        1.7280453650       -6.4267458706
 H       -13.0891167421        0.9531284546       -8.0410583718
 H       -14.2848930689        2.3024222450       -8.0727567061
 Na      -10.4670768327        4.0400112098        0.8245135118
