117

 C       -10.6467499736        0.6612850000       -8.1392215355
 C       -11.0049975966        1.6148017898       -7.0024118180
 O       -10.6491411070        1.5113167871       -5.8045396667
 C       -12.1452584454        2.7051670361       -7.3738107592
 C       -12.3350780742        3.6810581085       -6.1762390373
 O       -13.2959015018        3.4838234835       -5.4211469891
 C       -11.1688719372        4.6258022644       -5.8311632622
 C       -11.7217704882        5.8522994354       -5.0345449699
 C       -10.5777241457        6.4717587418       -4.2641088519
 O        -9.4626421356        6.5236342642       -4.7098026309
 C       -10.7449018448        6.8783167175       -2.6926851755
 C       -10.3956578262        5.6234089540       -1.7904707293
 O       -11.1163860480        5.4042140541       -0.8191467037
 C        -9.1212739427        4.9077728510       -2.0968241943
 C        -7.9500528512        5.4543898558       -1.3073563913
 C        -6.6116088700        4.7484810588       -1.4192713718
 O        -6.5502815768        3.6011309745       -1.8488360265
 C        -5.3358312366        5.4387504241       -0.8176054981
 C        -5.6926408945        5.9636102512        0.5838766159
 O        -6.1728015394        7.1188619807        0.7751141848
 C        -5.5584465188        5.0478755961        1.8119364644
 C        -6.5083117827        5.4607196204        2.9505723158
 C        -7.9442011842        5.3211142952        2.5450699063
 O        -8.3715583691        4.7468097214        1.5519085530
 C        -9.0629125263        6.1978945731        3.3397500769
 C        -9.9234250519        5.0668859657        4.0427123561
 O       -10.6508520661        4.4180212558        3.3193293634
 C        -9.8944312335        4.7345483782        5.5119904058
 C        -9.6085005631        3.2891552199        5.7345654375
 C        -8.3591668256        2.7007273284        5.1381613046
 O        -7.6673893854        3.3929085260        4.3719217660
 C        -8.0665192209        1.0897629325        5.2154319034
 C        -9.0999126327        0.3102971216        4.3157660833
 O       -10.2689701443        0.2132269340        4.6870786232
 C        -8.7349561198       -0.1282114817        2.8827403138
 C        -9.9732201225       -0.5213077393        2.0647177221
 C       -10.5629276927        0.7274122134        1.3982581279
 O        -9.9469233784        1.7694467142        1.3812974068
 C       -12.1221725391        0.7636630209        0.7525763571
 C       -12.8661857092        1.8995588937        1.4802257699
 O       -12.4742091141        3.0389681516        1.4176880260
 C       -14.1722156286        1.5410160159        2.1267785470
 C       -12.0505386044        1.1981198267       -0.7547140270
 C       -12.7745637094       -0.6509848915        0.9153915008
 C        -6.6165872477        0.8338215435        4.7384619407
 C        -8.0989691378        0.6599229044        6.7438439683
 C        -8.5038066136        7.2032014802        4.4239174856
 C        -9.8120181839        6.9716026540        2.1594040732
 C        -4.2066628633        4.3212754331       -0.7362897692
 C        -4.8396959853        6.5377810439       -1.7134226130
 C        -9.7014416271        8.0628817871       -2.5042394195
 C       -12.1900372561        7.2568424896       -2.2392089837
 C       -11.7614728758        3.5251405790       -8.6641129674
 C       -13.5008922879        1.8558610125       -7.5529610003
 H       -10.9967400702       -0.3451106451       -7.9253427742
 H        -9.5435092918        0.6338308871       -8.2237276160
 H       -11.0558933224        0.9259658442       -9.1698832297
 H       -10.5315389854        4.9108554999       -6.6807959746
 H       -10.4668022957        3.9787272083       -5.2788542226
 H       -12.5780630486        5.5457220477       -4.3909490825
 H       -12.1862441578        6.5389890095       -5.7772677960
 H        -8.9467496804        4.9673233338       -3.1116949124
 H        -9.1626064441        3.8129208461       -1.7884308121
 H        -8.2536926534        5.5512269835       -0.2247907656
 H        -7.8999887971        6.5642162875       -1.5836110748
 H        -4.4785397085        5.1756168530        2.1291367260
 H        -5.6431986888        3.9584766556        1.6581908887
 H        -6.2830737977        6.5100013478        3.0659799973
 H        -6.2279031919        4.8756425355        3.8755380630
 H       -10.9539022365        4.9978821380        5.7960792150
 H        -9.2342849208        5.2643743252        6.1770680175
 H       -10.4784934906        2.7214795375        5.2738446929
 H        -9.6739064951        3.0792308005        6.8190634891
 H        -8.1076248664       -0.9828984646        2.9444488651
 H        -8.2090955124        0.6401959039        2.3006199556
 H       -10.6604154869       -1.1233441668        2.6096851777
 H        -9.6799492618       -1.1581337996        1.2110219171
 H       -14.5654472192        2.3678288590        2.6269138130
 H       -14.1600388861        0.7826950393        2.8549099275
 H       -14.9654461107        1.2176707019        1.4068386904
 H       -13.1249065784        1.3787211868       -1.1850727023
 H       -11.3686975112        0.5439767629       -1.3066087478
 H       -11.5600440291        2.1983396710       -0.8168706346
 H       -13.7696615197       -0.7196319595        0.5426107283
 H       -12.7203565727       -0.9414662310        2.0028928161
 H       -12.1249217320       -1.4191818815        0.4860911111
 H        -5.8583435543        1.3370744122        5.3232157383
 H        -6.5337198685        1.2894406282        3.7270746126
 H        -6.3859271903       -0.2177075315        4.6803013075
 H        -7.7404754313       -0.3703448693        6.8517875998
 H        -9.0786987032        0.8461687937        7.1926045987
 H        -7.4130759371        1.2597050825        7.3496193607
 H        -7.6468547935        6.6667524197        4.9944300246
 H        -9.3210677894        7.5100185583        5.0954166512
 H        -8.0843450745        8.1205615692        4.1183568268
 H       -10.0006748751        6.2421373065        1.3414742091
 H        -9.0071167390        7.5578267126        1.7304498108
 H       -10.6357486512        7.5590232585        2.5005164623
 H        -3.3847184532        4.5871171261       -0.0686789063
 H        -3.8366482352        4.1654850032       -1.7677635634
 H        -4.6851932134        3.4237473891       -0.3633020355
 H        -5.5959830588        7.3113268475       -2.0364372695
 H        -4.5656673895        6.1330524571       -2.6229328500
 H        -3.9221536685        6.9649703987       -1.2565724241
 H       -10.0951857708        8.9669832369       -3.0016511767
 H        -8.7069386474        7.8184127606       -2.9199582838
 H        -9.5193716949        8.2807660158       -1.4221093176
 H       -12.1717146721        7.4930423823       -1.1688741982
 H       -12.7737022909        6.3792425948       -2.4563650686
 H       -12.4380874560        8.0794103489       -2.8720294702
 H       -12.3433992579        4.4743356624       -8.7681986611
 H       -11.9330488555        2.9346190654       -9.5290194269
 H       -10.6975541121        3.7380827593       -8.7367932305
 H       -13.7963887940        1.4575958509       -6.5994476338
 H       -13.3678698261        1.1863762224       -8.4127681322
 H       -14.3334634379        2.5539649358       -7.8408233598
 Na      -10.4663339682        3.9828119127        0.8989360510
