117

 C       -10.5638767426        0.6521214351       -8.1629284135
 C       -11.1372826806        1.5133486921       -7.0720275261
 O       -10.7790705326        1.4312718174       -5.9247663150
 C       -12.1346775784        2.6058551447       -7.4348741332
 C       -12.2603421573        3.4493350129       -6.1701361616
 O       -13.2905170173        3.3943397630       -5.5225307412
 C       -11.2354135526        4.5691694567       -5.8579863887
 C       -11.7322173463        5.7603079400       -4.9601688295
 C       -10.5570955605        6.3519144725       -4.1538885729
 O        -9.4608238468        6.4422659491       -4.6489570948
 C       -10.7802996124        6.9004847181       -2.6359014556
 C       -10.3714341894        5.6674361275       -1.7574557133
 O       -11.1503641407        5.2555391521       -0.8865134244
 C        -9.0633670839        4.8181833556       -1.9509454763
 C        -7.8828987529        5.4641202110       -1.1687119450
 C        -6.6072739512        4.6768398488       -1.2767654007
 O        -6.4710787433        3.6265092623       -1.8539948662
 C        -5.2586772063        5.3489547147       -0.7533432482
 C        -5.5709956369        5.9691676158        0.6066721219
 O        -6.0992357329        7.0700500112        0.6947670705
 C        -5.4517930164        5.0462825620        1.8238293887
 C        -6.4724885151        5.5736071096        2.9095382649
 C        -7.9600220397        5.4154821306        2.5458695245
 O        -8.2672927719        4.6965225100        1.5928568097
 C        -9.0494807476        6.2239640396        3.2757116083
 C       -10.0803870830        5.1452211900        4.0308912512
 O       -10.8351596127        4.5138548733        3.2953410332
 C        -9.8838053875        4.7910290607        5.5296788659
 C        -9.5816008862        3.1932845466        5.8252503306
 C        -8.3308945627        2.6272950717        5.0513058663
 O        -7.5971111315        3.4205444997        4.4828559687
 C        -7.9861047420        1.1254366004        5.1294166371
 C        -9.1599050382        0.4640667854        4.3077322394
 O       -10.2867818212        0.4333604990        4.7528408455
 C        -8.7740301963       -0.1111751432        2.9380965852
 C       -10.0135623558       -0.4778755918        2.0606928944
 C       -10.6162782814        0.7428289531        1.4281430989
 O        -9.9424803977        1.7681765201        1.3507407917
 C       -12.0392896371        0.7781142098        0.8424227153
 C       -12.9337734777        1.9478602988        1.4867861430
 O       -12.5845828967        3.0695537563        1.3798055183
 C       -14.2975239634        1.6687156576        2.1025184043
 C       -12.0620576673        1.2272452083       -0.6644001511
 C       -12.7601728872       -0.5842340128        0.9285656730
 C        -6.5754039798        0.7218553804        4.7110493049
 C        -8.1706402230        0.6862841433        6.6096800244
 C        -8.4074510065        7.2805607875        4.2320785857
 C        -9.7810039391        6.9761744695        2.1633068964
 C        -4.1546104554        4.2734612844       -0.7510127074
 C        -4.8423103536        6.4557642778       -1.8397605427
 C        -9.8365865930        8.0862646528       -2.4257017683
 C       -12.1132424700        7.4977566514       -2.2920339583
 C       -11.7823695989        3.4728752700       -8.6803256137
 C       -13.5084502927        1.9643090732       -7.7023486702
 H       -10.8149274583       -0.3689742737       -8.0270899971
 H        -9.4658612691        0.7632061438       -7.9895952266
 H       -10.7813492174        0.8566227777       -9.1873362753
 H       -10.6492920681        4.9146784915       -6.7573870039
 H       -10.3782442046        4.0138470090       -5.3723843165
 H       -12.5827990989        5.4575155644       -4.3971174819
 H       -12.1279310083        6.5549277549       -5.6204448303
 H        -8.8138284821        4.7698095494       -3.0372891970
 H        -9.0955587481        3.8298990434       -1.5644229640
 H        -8.1370128539        5.5834674989       -0.1748173086
 H        -7.7832677877        6.5681887076       -1.4922889705
 H        -4.4164201021        4.9703897797        2.2270625799
 H        -5.7019050724        3.9766754207        1.5949557470
 H        -6.1606207985        6.6305559465        3.0236628597
 H        -6.2572640241        5.0471514952        3.7699513242
 H       -10.7997143555        5.1321670494        6.0056622255
 H        -9.0388138339        5.3222537412        6.0054870347
 H       -10.5184519964        2.6598700964        5.6479966525
 H        -9.3547059074        3.1140251883        6.9036786315
 H        -8.1900156265       -0.9903386194        3.1324524995
 H        -8.1094206087        0.5962649804        2.3595059901
 H       -10.7498596970       -0.9688238591        2.7164857518
 H        -9.8354145296       -1.1740788083        1.2908049058
 H       -14.6386419052        2.5731293186        2.6424483491
 H       -14.4462034889        0.8599959485        2.8538583718
 H       -15.0602847444        1.4803590999        1.3680209627
 H       -13.0537809236        1.7953779814       -0.8650363132
 H       -11.7686417214        0.4045408345       -1.3589826248
 H       -11.2652970408        1.9684927051       -0.8217256853
 H       -13.7234901304       -0.3496785634        0.5479698650
 H       -12.8334834869       -0.9798514097        1.9847089569
 H       -12.3330023489       -1.4427585965        0.3814617115
 H        -5.7146095573        1.0927678387        5.3527097263
 H        -6.3042064822        1.0860898891        3.7510725821
 H        -6.5930555704       -0.3770229715        4.7743981841
 H        -7.5871936260       -0.1841912117        6.7712575660
 H        -9.2413909546        0.5007607214        6.7280733856
 H        -7.9393164199        1.3613401049        7.3694617056
 H        -7.3909142324        7.0004907322        4.5386047153
 H        -9.0589639916        7.5011557496        5.0431756715
 H        -8.3284306416        8.3038963823        3.8423876737
 H       -10.0794638063        6.2021476178        1.4826667453
 H        -9.0433926692        7.5013694489        1.5966300801
 H       -10.5362064791        7.6390681724        2.5471896582
 H        -3.2108913310        4.7125837197       -0.3948968000
 H        -4.0541959775        4.0915075849       -1.8228780740
 H        -4.3952104551        3.3518612384       -0.1768529821
 H        -5.6721662026        7.1309553685       -2.0074162303
 H        -4.6778481706        6.1085524758       -2.8640592770
 H        -3.9930516308        6.9818011109       -1.4525744472
 H       -10.2077151858        8.9990886611       -2.9664599880
 H        -8.8228802392        7.9151744998       -2.7314097004
 H        -9.8202074688        8.2963051668       -1.3566064023
 H       -11.9665942481        8.0986559452       -1.3977307926
 H       -12.8091726722        6.7016128523       -2.1649393502
 H       -12.3224408445        8.0922102237       -3.2069793160
 H       -12.4746799358        4.3249402696       -8.7089064591
 H       -11.8920207103        2.9365104228       -9.5978810874
 H       -10.7711500418        3.8148902213       -8.7189310350
 H       -13.7800941601        1.2789217745       -6.9465745847
 H       -13.5416859794        1.6486138179       -8.7303224450
 H       -14.1681716357        2.7481638811       -7.6580647674
 Na      -10.4763944249        3.9256675229        1.0276566460
