117

 C       -10.4463497690        0.6399441536       -8.2665777529
 C       -11.2464123992        1.3988233074       -7.2348585706
 O       -10.9271531538        1.1324619577       -6.0605235411
 C       -12.1936589445        2.6098061486       -7.5380863289
 C       -12.3875397605        3.5026242767       -6.2435685045
 O       -13.3359181211        3.3434288196       -5.4756204634
 C       -11.3335033597        4.4909610418       -5.8100983394
 C       -11.7104018832        5.4182303620       -4.6525565700
 C       -10.5223609362        6.2112216458       -4.0559056823
 O        -9.4215732402        6.2563531878       -4.5453138654
 C       -10.7148688627        6.8095688331       -2.6067534290
 C       -10.3844645208        5.6584191259       -1.6067328840
 O       -11.2181048914        5.2084686392       -0.8532623109
 C        -9.0536182775        5.0062149340       -1.8356262517
 C        -7.6918248465        5.5841051210       -1.2489012465
 C        -6.5276572159        4.6220833996       -1.3811229634
 O        -6.6119398208        3.4829757747       -1.8338180879
 C        -5.1486524672        5.2575769860       -0.8702614941
 C        -5.4707289516        5.9041780221        0.5003769340
 O        -5.8055451981        7.1016543727        0.5273459798
 C        -5.4372012582        5.1287062724        1.8127565775
 C        -6.3900646323        5.7847006682        2.8363866439
 C        -7.8054838565        5.3669380279        2.5596124080
 O        -8.0970391795        4.3875700061        1.8935310548
 C        -9.0409076018        6.2597317628        3.2443080009
 C        -9.9352763335        5.2396585815        3.9927598556
 O       -10.8796485707        4.7690607166        3.4009643079
 C        -9.5753371661        4.8508252893        5.4419564275
 C        -9.4604948622        3.3619651915        5.6259902847
 C        -8.2172225979        2.7601957459        5.1551163859
 O        -7.3554836527        3.4143893046        4.5509231028
 C        -8.0715623109        1.1794444481        5.2564814535
 C        -9.2689053010        0.5922526167        4.2724326314
 O       -10.4541272747        0.7845133982        4.5365854484
 C        -8.9842184316       -0.2015446330        2.9706286240
 C       -10.2520041253       -0.4077245638        2.2522066031
 C       -10.7291435428        0.8681464816        1.5075602341
 O        -9.9597501738        1.7492451993        1.2706481377
 C       -12.1367886303        0.9185635818        0.8635585865
 C       -13.0674863527        2.0512585159        1.4715282854
 O       -12.7342484798        3.2317621399        1.4818630877
 C       -14.4201699095        1.6917622703        2.0690703856
 C       -11.9121931076        1.1907319198       -0.6511535293
 C       -12.8621884915       -0.4504204912        1.0587782817
 C        -6.6725498043        0.8587414243        4.6283349556
 C        -8.3266087839        0.6390703447        6.6396724556
 C        -8.5441375453        7.2963131014        4.3020333319
 C        -9.9864093993        6.9590545392        2.1851455499
 C        -3.9612577759        4.2368033810       -0.7674444963
 C        -4.7944213050        6.3501173049       -1.8358380981
 C        -9.6480770999        7.9301235577       -2.3958816137
 C       -12.1958624425        7.2725863803       -2.4682883102
 C       -11.6175204172        3.4301164432       -8.7526371852
 C       -13.5766577753        1.9543781726       -7.9927974547
 H       -10.5979628052       -0.4392817055       -8.2124591051
 H        -9.4202425731        0.8473457688       -8.1553277354
 H       -10.7516457932        0.9038862193       -9.3037831623
 H       -10.8954694971        5.0145695530       -6.6313731049
 H       -10.4759636842        3.9071985103       -5.5533979376
 H       -12.1209162939        4.7157692780       -3.8818160429
 H       -12.5646520131        6.0384325163       -4.8607745399
 H        -8.9374495859        4.8667350150       -2.8881898670
 H        -8.9958325403        4.0144858472       -1.2972314894
 H        -7.8594941847        5.7288556572       -0.1237759648
 H        -7.4424832711        6.5245183617       -1.6684821481
 H        -4.4426049805        5.1668787614        2.2433148618
 H        -5.6736851692        4.0944590119        1.7207574273
 H        -6.2340682424        6.8386518551        2.6512523720
 H        -6.0392715439        5.5653468705        3.9172442355
 H       -10.3334244500        5.2111759428        6.1604545950
 H        -8.6221698039        5.2164998572        5.7468244741
 H       -10.3285147177        2.9970087979        5.0768352932
 H        -9.5918086977        3.1986298137        6.6871389442
 H        -8.5017110234       -1.2160672285        3.1552105316
 H        -8.2964364953        0.3431469032        2.3234364307
 H       -10.9638766985       -0.8627953061        2.9376256138
 H       -10.0647878596       -1.2025690342        1.4484486802
 H       -14.8531624608        2.4340083673        2.7001528560
 H       -14.3355125189        0.8480676735        2.7292624194
 H       -15.2399011436        1.3928706556        1.3453616596
 H       -12.8611019012        1.5851541349       -1.0132284387
 H       -11.6789978863        0.3453162875       -1.2035372740
 H       -11.1474843147        1.8946832376       -0.8446104470
 H       -13.7911871275       -0.5233758446        0.4768148427
 H       -13.0448211256       -0.6424220460        2.0941930553
 H       -12.2272274706       -1.2475399755        0.7143758738
 H        -5.8261310648        1.2059898672        5.1686846558
 H        -6.5099902133        1.4132394844        3.6661903620
 H        -6.5560894425       -0.2145097809        4.6319778435
 H        -7.7973706500       -0.3159802008        6.6960870979
 H        -9.3623001475        0.5046252235        6.8381301254
 H        -7.9538225033        1.2588596665        7.4773963064
 H        -8.0276483100        6.7437568755        5.0972360676
 H        -9.3176940423        8.0010387552        4.5579491568
 H        -7.8090926188        7.9721812263        3.9697836993
 H       -10.6434248411        6.1948127120        1.7320079766
 H        -9.4705060209        7.4966388384        1.3753933442
 H       -10.5216069453        7.7117933253        2.7736287621
 H        -3.0500032638        4.8028709602       -0.8714478851
 H        -3.9714666811        3.4235439170       -1.4902512889
 H        -3.9936300610        3.9037213837        0.2404714988
 H        -5.3289835379        7.3116646248       -1.8075977628
 H        -5.0328700508        6.0266343135       -2.8070161888
 H        -3.7130706949        6.4993940103       -1.7169648272
 H        -9.9413561840        8.7733986635       -2.9483714046
 H        -8.6851357667        7.6907363008       -2.8622158624
 H        -9.5686183047        8.1975828095       -1.3453455952
 H       -12.1669391327        7.9048761554       -1.5844092458
 H       -12.7491354203        6.3347517166       -2.2507852647
 H       -12.5349996998        7.6919290587       -3.3876986002
 H       -12.3979934494        4.1463818708       -8.9964252030
 H       -11.4443086541        2.8681449239       -9.6736002566
 H       -10.6771659748        3.9727994718       -8.5916353772
 H       -13.7745063648        1.1161125298       -7.3400954128
 H       -13.5452683192        1.6888286777       -9.0374208480
 H       -14.3649476632        2.7591450193       -7.9401662713
 Na      -10.4914037598        4.0457933763        1.1362371684
