117

 C       -10.5577800495        0.7171623152       -8.4230429664
 C       -11.1740830372        1.4373599051       -7.1741387455
 O       -11.0961933798        1.0679701779       -6.0229782487
 C       -12.1487083629        2.6081914919       -7.5203495122
 C       -12.3613195504        3.3900421568       -6.2597197600
 O       -13.4219935477        3.2532384166       -5.6578799920
 C       -11.2691934873        4.4600867071       -5.8580671943
 C       -11.6199425322        5.1775046038       -4.5210144358
 C       -10.4817914502        6.0136418206       -4.0487613798
 O        -9.4494987430        6.1428806657       -4.6582225141
 C       -10.6882770096        6.7513801643       -2.6402614895
 C       -10.2956603151        5.5740415292       -1.5969701544
 O       -11.1361534258        5.3127265053       -0.7254394266
 C        -8.9917374326        4.8335388450       -1.7823091109
 C        -7.7610839729        5.5338859201       -1.2252042407
 C        -6.5047399934        4.6163731238       -1.3378384970
 O        -6.6201504831        3.4971169675       -1.7626807926
 C        -5.1201256535        5.2670576544       -0.8899000369
 C        -5.3700214979        5.9624340395        0.4450316991
 O        -5.6662887727        7.1690297316        0.4855602771
 C        -5.3969714987        5.1912189688        1.7798191916
 C        -6.4549057946        5.8223801391        2.7844891750
 C        -7.9030909588        5.4324010062        2.6021071655
 O        -8.2385476032        4.4225068209        1.9723597542
 C        -9.0368164561        6.3378908738        3.3051172162
 C        -9.9052277550        5.3022173658        4.0679750179
 O       -10.7958362237        4.6579293596        3.5301372362
 C        -9.5469126513        4.9484497867        5.4933768915
 C        -9.5769497503        3.3895808497        5.6376910153
 C        -8.2591512947        2.7340215774        5.0527242234
 O        -7.2557875003        3.3841429963        4.6768157541
 C        -8.1550190729        1.1670436150        5.1181033975
 C        -9.3181091478        0.6582080420        4.2424294529
 O       -10.4657080437        0.9788029855        4.5228207455
 C        -9.0247739209       -0.1952566733        3.0287399942
 C       -10.3285817336       -0.3958044914        2.2397262554
 C       -10.7587749515        0.8546987531        1.4812282004
 O        -9.9922600963        1.8056587675        1.3690240424
 C       -12.2266327625        0.9241703274        0.8549672523
 C       -13.0355195498        2.0944487578        1.5082279050
 O       -12.6940127288        3.2256507303        1.5071757452
 C       -14.4345453691        1.7137503992        2.0428146659
 C       -11.9726286542        1.2234540054       -0.6490071888
 C       -12.9721803385       -0.4324959310        1.0350131193
 C        -6.7526714662        0.8060216867        4.6519727182
 C        -8.2962967927        0.6820203176        6.5694375515
 C        -8.4815470802        7.4200934001        4.2095460447
 C        -9.8117269156        6.9598384244        2.1421767442
 C        -4.0234926239        4.1205356155       -0.7896859053
 C        -4.6479502337        6.3392945676       -1.9628502687
 C        -9.7635408694        7.9107006360       -2.4744688775
 C       -12.1696637970        7.1634570771       -2.3896311899
 C       -11.5957952943        3.4741802430       -8.6664016951
 C       -13.4916333692        1.9774484291       -8.0015881980
 H       -10.5669133453       -0.3589572717       -8.3637935564
 H        -9.4813942378        1.0282642956       -8.5522285215
 H       -11.0639916029        0.9724285443       -9.4023633918
 H       -11.2184823262        5.2053531838       -6.6415998881
 H       -10.2743218406        4.1000404603       -5.9339290405
 H       -12.0809697516        4.4748333621       -3.8007723264
 H       -12.4410568316        5.9343215293       -4.6619181381
 H        -8.8211767961        4.7376753066       -2.8326390040
 H        -8.9043311362        3.8452383622       -1.2580761579
 H        -7.9518298334        5.9405327202       -0.2241745917
 H        -7.6055942262        6.4396679871       -1.9822910580
 H        -4.4243746696        5.3010653056        2.2971455700
 H        -5.5906923289        4.1274204081        1.6863513440
 H        -6.2592930200        6.9144780191        2.7014423514
 H        -6.1727104373        5.5165448414        3.8376033080
 H       -10.2186996352        5.4061342683        6.2581371255
 H        -8.5299298834        5.2346021954        5.7130421491
 H       -10.4840249193        3.1832442345        5.0305325668
 H        -9.7406377646        3.1743771880        6.6984978440
 H        -8.6625167373       -1.1365236802        3.3651899104
 H        -8.1923704012        0.2307505636        2.4257561370
 H       -11.0999340454       -0.6569814167        2.9803654914
 H       -10.2491010721       -1.2705428242        1.5455203919
 H       -14.9592329774        2.5420697398        2.4244986488
 H       -14.4117317343        1.0195944229        2.8440464448
 H       -15.1089408554        1.2602289635        1.3097783026
 H       -12.9490771896        1.2092350194       -1.2555155211
 H       -11.3567984941        0.4836299941       -1.1098920360
 H       -11.4969353608        2.1527661539       -0.7701048882
 H       -13.8656371381       -0.5005314627        0.5244550322
 H       -13.1456387515       -0.6355149003        2.1301908198
 H       -12.3426072261       -1.2127718584        0.6132203675
 H        -6.0484714645        1.1994147668        5.4004602412
 H        -6.4025784703        1.3159207600        3.7987357872
 H        -6.5571590080       -0.2333166944        4.7427511384
 H        -8.1048598609       -0.4153341492        6.5999349728
 H        -9.2885789423        0.9216469354        7.0620813498
 H        -7.5336941233        1.1563657941        7.1983464533
 H        -7.9834017096        6.9247388227        5.0945815828
 H        -9.3229061982        8.0595979409        4.4616057938
 H        -7.7775293058        8.1204447895        3.8149498545
 H       -10.3283234195        6.1814045192        1.5198171416
 H        -9.0970616975        7.5274071973        1.5081295492
 H       -10.4640049575        7.7443108446        2.5492841369
 H        -3.0895105111        4.6060273810       -0.9793697428
 H        -4.1817260262        3.4026134531       -1.5888221702
 H        -4.0025871854        3.6704276126        0.1769488487
 H        -5.0912180635        7.3706082555       -1.9161962919
 H        -4.9327829186        6.0315374572       -2.9273373787
 H        -3.5552129339        6.4022505819       -1.8512470969
 H       -10.0624535665        8.8730179573       -2.9139335792
 H        -8.8965953812        7.6744421198       -3.0553817328
 H        -9.5415123079        8.0472927192       -1.4112478810
 H       -12.1923225192        7.6399847321       -1.4040456795
 H       -12.7369247859        6.2675667403       -2.4138617662
 H       -12.4847448753        7.7880799288       -3.2324588899
 H       -12.2720346666        4.3208160323       -8.9953007573
 H       -11.4127902221        2.8985702359       -9.5506873911
 H       -10.6006091085        3.8723068626       -8.4250118235
 H       -13.8691602790        1.2765369962       -7.2294934861
 H       -13.3592196498        1.4615774066       -9.0334988435
 H       -14.1400808368        2.8574502810       -8.2137616631
 Na      -10.4913421545        4.0995170041        1.1537477185
