117

 C       -10.5967216062        0.6777536112       -8.3950422999
 C       -11.2040342384        1.3708490858       -7.2305221404
 O       -11.1160323903        0.9686584814       -6.1176350935
 C       -12.1139522573        2.6055462472       -7.6303395625
 C       -12.4811692869        3.4169531434       -6.3187920518
 O       -13.4551763190        3.2766685144       -5.6464361905
 C       -11.3452984510        4.3949776306       -5.9012132576
 C       -11.6331733947        4.9581879390       -4.5028714217
 C       -10.5252207749        5.9091767156       -4.1202611099
 O        -9.4662342749        6.0755844419       -4.7077143801
 C       -10.6337273949        6.5976581170       -2.6407284228
 C       -10.2357907066        5.5247245854       -1.5968263523
 O       -10.9328301699        5.3945435512       -0.5808375122
 C        -9.0176560845        4.6900541133       -1.7149844860
 C        -7.7802121403        5.5059844404       -1.2514245152
 C        -6.4462981347        4.6793658104       -1.3343950914
 O        -6.5435265150        3.5294859992       -1.6454920927
 C        -5.0384472925        5.2457280929       -0.9006946694
 C        -5.3336906754        6.0812313442        0.4535779822
 O        -5.5322824942        7.2458494898        0.4169758967
 C        -5.4612107271        5.2281205890        1.7460876177
 C        -6.4488044828        5.8375849094        2.8015523919
 C        -7.9270470112        5.4352759591        2.6623977529
 O        -8.3454689088        4.5491230138        1.9439458007
 C        -8.9837499041        6.3937339461        3.3370009787
 C        -9.8368380829        5.3125647328        4.0963227659
 O       -10.7105053291        4.6327095985        3.5418484978
 C        -9.5011061445        4.9902674443        5.5601680183
 C        -9.5196438885        3.3799154504        5.7156897092
 C        -8.2397645173        2.7683919054        5.1308130328
 O        -7.3478357504        3.4788322296        4.8187326514
 C        -8.1469651072        1.2335518306        5.0904079721
 C        -9.3624331816        0.7221815975        4.2314824069
 O       -10.4694369972        1.0724238120        4.5270526503
 C        -9.1001899210       -0.2291397609        3.0549457384
 C       -10.4164402266       -0.4429953023        2.1603911926
 C       -10.8361982036        0.8785642861        1.5396886144
 O       -10.0464497029        1.8507531998        1.4666294574
 C       -12.2359912696        0.8647941202        0.8682453198
 C       -13.0845046108        2.0911868013        1.4937036940
 O       -12.5951948497        3.2115315706        1.5229220472
 C       -14.4415849553        1.8311369217        2.0404407096
 C       -12.1117942708        1.2537981211       -0.6342174671
 C       -12.9753939818       -0.4594055238        0.9327309463
 C        -6.7945767028        0.6806051326        4.5776675419
 C        -8.3724103807        0.7160206096        6.5573896163
 C        -8.3835708449        7.5681964079        4.1257251981
 C        -9.6833194617        7.0658267438        2.0514264798
 C        -4.1538439395        4.0312941213       -0.8105234575
 C        -4.6051022770        6.2223299083       -2.0359104453
 C        -9.7924460190        7.9195513863       -2.5601399318
 C       -12.1378526822        7.0434722820       -2.3115596863
 C       -11.5158612760        3.6075452789       -8.6652220737
 C       -13.4429059034        1.9836047329       -8.0471438674
 H       -10.2406646208       -0.3514064678       -8.1189306950
 H        -9.6442391529        1.2344729479       -8.6958818972
 H       -11.1826259385        0.5958670854       -9.2910647661
 H       -11.1365441093        5.2111446394       -6.6228024913
 H       -10.3726174928        3.8527677118       -5.9658655141
 H       -11.5712590063        4.1275687256       -3.8001216041
 H       -12.6598439542        5.3555416403       -4.3109350956
 H        -8.7670702469        4.2383072468       -2.7187550502
 H        -9.0305991208        3.9555880713       -0.9611138176
 H        -7.9651107241        5.7659791305       -0.2142674042
 H        -7.7681463706        6.4579579152       -1.8650471371
 H        -4.4798627216        5.0968111519        2.2480879184
 H        -5.8802060351        4.2020800909        1.5240312403
 H        -6.2868004856        6.9569290563        2.7351433085
 H        -6.1470450132        5.5606528453        3.7711728605
 H       -10.2644751557        5.3492964424        6.2434022494
 H        -8.5084977694        5.3920910750        5.8862638146
 H       -10.4340844736        3.1116071603        5.1756622415
 H        -9.6250660290        3.1987911865        6.8046790355
 H        -8.6270459966       -1.1170129640        3.4089974460
 H        -8.3033888436        0.2282884544        2.4581300551
 H       -11.2492642884       -0.8399469823        2.7856800933
 H       -10.2640781875       -1.1243470585        1.3624822143
 H       -15.0119459554        2.7562347054        2.1892910179
 H       -14.4650930325        1.3066265599        2.9948559543
 H       -15.0207013138        1.2662155816        1.4146538248
 H       -12.9064899702        0.9150593136       -1.2573707947
 H       -11.1862254783        0.7496986242       -1.1211746992
 H       -11.9444160330        2.3714619742       -0.7292974050
 H       -13.9405963668       -0.3249669921        0.4269612518
 H       -13.2113125389       -0.7720980304        1.9563518289
 H       -12.4930772202       -1.2406125714        0.3336600165
 H        -5.9661553087        1.0231858478        5.2144285990
 H        -6.4948800353        1.0178446152        3.6357635691
 H        -6.7474141190       -0.3772016538        4.7571984562
 H        -8.5107633763       -0.3846186007        6.6447671391
 H        -9.2347291233        1.2217945915        7.0754205040
 H        -7.4897552781        0.9976612628        7.1499375740
 H        -7.5977293336        7.3751952227        4.8228114020
 H        -9.2604012259        8.0798859255        4.5919167116
 H        -8.0211221128        8.3827210975        3.3994616410
 H       -10.0687855936        6.3636229833        1.3481448418
 H        -8.9157441110        7.7136750473        1.5825645200
 H       -10.4286556668        7.8270982201        2.3932864449
 H        -3.1125627248        4.3320248738       -0.8110614604
 H        -4.3323589136        3.5537375286       -1.7515028076
 H        -4.4092592100        3.3692720112        0.0253514609
 H        -5.2184204839        7.0907582662       -1.9118083505
 H        -4.8942162547        5.8958869550       -3.1005959132
 H        -3.5868632078        6.5406070930       -1.9338697688
 H       -10.3275195142        8.8019403726       -2.9940232562
 H        -8.9406898089        7.8700703510       -3.2356388744
 H        -9.5537909893        8.1597646742       -1.5270503276
 H       -12.1479093640        7.3904110385       -1.2926890300
 H       -12.8791901833        6.3014565354       -2.5163723137
 H       -12.2540557145        7.8538793739       -3.0541566670
 H       -12.0469577925        4.5647258899       -8.7326850161
 H       -11.4511118515        3.2267252974       -9.6999005045
 H       -10.4732582778        3.8005803820       -8.3871185111
 H       -13.8322225533        1.5747650877       -7.0662477950
 H       -13.3405468904        1.1370329551       -8.7793055832
 H       -14.0562569124        2.7620192728       -8.4931022154
 Na      -10.5181943119        4.0711825445        1.2240291624
