117

 C       -11.0009698163        0.1071382052       -8.9790519283
 C       -11.4742993563        0.9026708300       -7.7067588361
 O       -10.9080183785        0.6742815911       -6.6737206143
 C       -12.3366784112        2.2327970119       -7.9939210368
 C       -12.5058589457        3.0839765302       -6.6301890941
 O       -13.6226173088        3.4041611953       -6.2647142759
 C       -11.2432836445        3.4546387468       -5.7879654450
 C       -11.6849958635        4.5251531569       -4.6551284715
 C       -10.5470854958        5.3766481476       -4.1041084133
 O        -9.4978552929        5.3730622280       -4.7320775470
 C       -10.7013290470        6.1158946754       -2.8165607121
 C       -10.0594939097        5.1905696591       -1.7316093267
 O       -10.6345234842        5.0731623590       -0.6456553389
 C        -8.8541890862        4.4246116071       -2.1071849498
 C        -7.4793132491        5.1893557237       -1.8908227736
 C        -6.3695952352        4.2814542801       -1.1706475820
 O        -6.5218315392        3.1037700902       -0.9198765210
 C        -4.9930838453        5.0630007666       -0.9888744530
 C        -5.1405075669        5.8759769485        0.3669452535
 O        -5.0563320312        7.0871201048        0.3484078023
 C        -5.4780983228        5.0354007347        1.5729716087
 C        -6.1961295790        5.8751433010        2.6648383204
 C        -7.6981047496        5.9987014066        2.5407744786
 O        -8.3263411946        5.6240151226        1.5263218806
 C        -8.4681529760        6.7464497863        3.7114479173
 C        -9.3641952291        5.6274345199        4.4089255004
 O       -10.0392957131        4.8339046022        3.7371003935
 C        -9.1656416074        5.4021216417        5.8873541276
 C        -9.2009145538        3.8759521344        6.2904769252
 C        -8.4066344152        3.0251490383        5.2881239552
 O        -7.7391483484        3.5797780582        4.3975946422
 C        -8.4206343947        1.5126351523        5.3530367493
 C        -9.7664442424        1.1725574523        4.5207339174
 O       -10.7250004247        1.8761815087        4.7501675485
 C        -9.7933295794        0.0014263903        3.5289624694
 C       -11.0307869600       -0.0342747611        2.5606032073
 C       -11.0653913248        1.1691587207        1.6091249861
 O       -10.1199514248        1.8846763919        1.4420916651
 C       -12.4203737188        1.3935075166        0.8181855385
 C       -13.2760698077        2.4222718424        1.5595713355
 O       -12.8017929336        3.5426264186        1.7985404666
 C       -14.6087291109        2.0904708043        2.1938916564
 C       -11.9757674042        1.9551580969       -0.5258666915
 C       -13.1818375049        0.0534936576        0.5645478174
 C        -7.2275055286        0.7334157650        4.8354296026
 C        -8.8621790357        1.0158467065        6.7868660061
 C        -7.4842341994        7.4797280389        4.7378153848
 C        -9.4194990945        7.7853382919        3.0242481502
 C        -3.9230617588        3.8729207862       -0.8705326009
 C        -4.6445017899        5.8490768399       -2.2123276983
 C        -9.9381992182        7.4526702093       -2.6555662395
 C       -12.2328938136        6.1693348226       -2.4146358155
 C       -11.4435188951        3.0670942457       -8.9596545294
 C       -13.7390646876        1.9866019653       -8.5244739754
 H       -10.1449935444        0.4865979307       -9.4891823343
 H       -11.8113475649        0.1643610411       -9.7165385453
 H       -10.7344494458       -1.0013361223       -8.9101012314
 H       -10.4953494586        3.9103552511       -6.4074042873
 H       -10.8904516380        2.5738829526       -5.2553220742
 H       -12.2082939482        3.9861000796       -3.8306106411
 H       -12.4664346992        5.1162205623       -5.1455246882
 H        -8.8368431964        4.0103458772       -3.1273415711
 H        -8.8048777792        3.5709833095       -1.4044327877
 H        -7.6708688992        6.1013978042       -1.3263556802
 H        -7.1655953144        5.4114773187       -2.8944097826
 H        -4.5817074036        4.6706519801        2.1094557796
 H        -6.1278687368        4.1792300566        1.3161079998
 H        -5.7144804817        6.8748459175        2.6762278558
 H        -5.9363864781        5.6363526266        3.7239359245
 H        -9.9346011284        5.8870817853        6.5281754002
 H        -8.2240316344        5.8189603840        6.2427899050
 H       -10.2475099167        3.4967130383        6.3163389981
 H        -8.7412052307        3.8651825922        7.2914809176
 H        -9.6804765386       -0.9017583109        4.1608832032
 H        -8.8994958594        0.0184002782        2.9720552247
 H       -12.0222394974       -0.1454414047        3.0356599632
 H       -10.7950114765       -0.8872337297        1.8801432368
 H       -14.8173260119        2.6927759608        3.0222650035
 H       -14.7814773682        1.0982591573        2.4730342255
 H       -15.4626217646        2.3061962876        1.4931998826
 H       -12.7690793179        1.7654017669       -1.3218149139
 H       -11.0811504675        1.4364841430       -0.7408789543
 H       -11.7446675318        2.9709942355       -0.6159967968
 H       -14.0552960436        0.3264439021        0.0198582331
 H       -13.4067964121       -0.4996523448        1.4733528938
 H       -12.6140837118       -0.6673024193        0.0192327577
 H        -6.3849950704        0.7450826586        5.4814445972
 H        -6.9027862148        1.0511791481        3.8069256106
 H        -7.5512576853       -0.2750973275        4.6072774271
 H        -8.8513926058       -0.0712202908        6.8810273353
 H        -9.7926305550        1.4694290248        7.0759800749
 H        -8.1784851778        1.3409222038        7.5866762350
 H        -6.7078892443        6.7666408096        5.2455499184
 H        -8.1850132900        7.8764237657        5.5429244640
 H        -6.9934025307        8.3087788110        4.2986717332
 H       -10.0159235019        7.3975045525        2.1426092025
 H        -8.8398496305        8.6036897378        2.5962334863
 H       -10.1251637384        8.1838567371        3.7497312406
 H        -2.9136750038        4.1266723404       -0.5572934389
 H        -3.9078406679        3.3938466448       -1.8593934207
 H        -4.3487499382        3.1261514093       -0.2400838635
 H        -5.1955184211        6.8268525896       -2.3280175103
 H        -4.6548380179        5.2621959922       -3.0469441077
 H        -3.5488941115        6.0240545078       -2.1601836998
 H       -10.3820082394        8.2180472890       -3.2209447450
 H        -8.8743086634        7.3408498877       -2.8237754771
 H        -9.9550423393        7.7095151347       -1.5935622375
 H       -12.3838017601        6.9067089505       -1.6044122916
 H       -12.6298494429        5.1637501419       -2.1430934102
 H       -12.7555930577        6.5830645620       -3.2556220225
 H       -11.7360991023        4.1033197395       -8.9511336323
 H       -11.4427954630        2.7578828112       -9.9984003745
 H       -10.4082476444        3.0611222580       -8.6308865874
 H       -14.3144172950        1.5574558256       -7.6958693863
 H       -13.7834153590        1.3193085952       -9.4431462916
 H       -14.2291755490        2.9689186408       -8.7727747148
 Na      -10.3129431804        4.2832418878        1.4352837251
