117

 C       -10.2139863260       10.8560374363       -3.6711988736
 C        -8.8543480343       10.0683737668       -3.8189959702
 O        -8.7504826755        8.8617588305       -3.5559013961
 C        -7.5792622043       10.7596272817       -4.3437146172
 C        -7.1311588885       11.3696072045       -2.9544069187
 O        -7.5507938799       12.4141261046       -2.5609199634
 C        -6.0893725140       10.6496864178       -2.0765278623
 C        -6.6656458050        9.8147173015       -0.8996455070
 C        -5.8378266953        8.6545004144       -0.4911018772
 O        -5.3397494575        7.9394384477       -1.3582241997
 C        -5.9041762726        8.0807131080        0.9701028779
 C        -7.4549153966        7.8064989044        1.1149226982
 O        -8.2139270481        8.7222463423        1.4379535298
 C        -8.0119940329        6.3436069417        0.7955087938
 C        -9.3485608729        6.5238307769        0.0791395568
 C       -10.1341114897        5.1017912887       -0.2687303421
 O        -9.6634316910        4.0527840948        0.0049946802
 C       -11.4825149681        5.1961218238       -1.2005910275
 C       -12.4358901314        4.0966985427       -0.5422001408
 O       -12.1443932307        2.8858290536       -0.4279204992
 C       -13.6031512963        4.6070367517        0.2536150035
 C       -14.2992551102        3.4506303493        1.0170578656
 C       -13.3472457079        2.6786676139        1.9967551420
 O       -12.2621775459        3.1559215507        2.3024890554
 C       -13.8969351413        1.3468679600        2.6538319664
 C       -12.7826741840        0.1922030406        2.5269721448
 O       -11.5961782333        0.4303847203        2.2313341729
 C       -13.0985542070       -1.1588247943        3.1281939717
 C       -12.2567609403       -2.2269593154        2.3335529379
 C       -12.6289320084       -2.5102887405        0.8211461372
 O       -13.0643443208       -1.5923331206        0.2330342414
 C       -12.1596565483       -3.7888616263        0.0673314916
 C       -10.5137375957       -3.5393983097       -0.0950325838
 O        -9.7643256124       -4.1717810736        0.6460902741
 C       -10.0026801925       -2.4877252330       -1.0712207555
 C        -8.6367898170       -2.0397817074       -0.5569414441
 C        -8.7648462900       -0.6222238062        0.1245359354
 O        -9.8776429354       -0.1489710767        0.1877224209
 C        -7.3838960485        0.1881557042        0.4188559121
 C        -7.4975479413        0.8820808209        1.8690825719
 O        -8.3912383731        1.6609523850        2.0561224173
 C        -6.5070170151        0.4920838210        2.9479023821
 C        -6.1616893579       -0.6728253748        0.2734668456
 C        -7.3377487409        1.3445774602       -0.6451304003
 C       -12.3146463009       -5.1013676084        0.9267267097
 C       -12.8538831912       -4.0441534503       -1.4469674552
 C       -13.9211401237        1.5779587428        4.1827311521
 C       -15.1838328761        0.8213380691        2.0959512217
 C       -12.0137034813        6.6574553632       -1.2087582071
 C       -10.9966343966        4.8642789221       -2.6587988926
 C        -5.0072547477        6.8017795771        1.2114037723
 C        -5.4526408404        9.1399861672        2.0642950750
 C        -6.5644734061        9.7323852288       -4.8734902060
 C        -7.8869853766       11.8988418527       -5.4174089551
 H       -10.5195298845       11.1139203248       -4.6983255480
 H        -9.9165867452       11.8354191690       -3.2164565723
 H       -10.8751993582       10.1875699539       -3.2763207933
 H        -5.3371664518       11.3665093362       -1.8853992867
 H        -5.4231802199       10.0202384806       -2.7233714980
 H        -7.6393836366        9.4525950870       -1.2140767693
 H        -6.8825005337       10.5639450864       -0.1597185212
 H        -8.1373276990        5.8378285008        1.7141082736
 H        -7.3239910927        5.7216455389        0.2478527952
 H        -9.1773507313        6.9606868247       -0.8512933156
 H        -9.9740921554        7.2083990537        0.6173370889
 H       -14.4011985055        5.0995208638       -0.3056149344
 H       -13.3490945043        5.2699522659        1.0128286544
 H       -14.5939555659        2.7777450474        0.2275742131
 H       -15.2265598876        3.7734208294        1.5810966804
 H       -14.1570519792       -1.2539850756        2.9183426427
 H       -12.9725074861       -1.1765835364        4.1762817727
 H       -12.1477399079       -3.2069120150        2.8292605030
 H       -11.2430697221       -1.9567334731        2.5725371129
 H       -10.7249716880       -1.6698330553       -1.2482257607
 H        -9.7968609400       -2.9176404159       -2.0288952344
 H        -7.9065935605       -1.9085035268       -1.4139464198
 H        -8.2786991584       -2.7442903079        0.2430904689
 H        -6.6388755741       -0.5744002290        3.2728224886
 H        -6.5349564152        0.9959959038        3.8009988014
 H        -5.4910818139        0.3662962288        2.5250500044
 H        -6.0305363162       -0.9218317935       -0.7348240260
 H        -6.0778912128       -1.6136642730        0.8723812983
 H        -5.3479216696       -0.0074964004        0.6518811237
 H        -8.0202924613        2.0679646623       -0.2010841027
 H        -7.6284466312        1.0382771509       -1.6491578802
 H        -6.3521251123        1.8127252250       -0.6304808743
 H       -13.1585874783       -5.1100615399        1.6182712699
 H       -11.3614855750       -5.2159252611        1.4973019116
 H       -12.2783309016       -5.9119291484        0.2643534667
 H       -12.9557083107       -3.0905108920       -2.0064391532
 H       -13.8362026829       -4.4483117002       -1.3219973230
 H       -12.2193822328       -4.6354125278       -2.0343161612
 H       -14.8284926506        2.0770078480        4.4450236172
 H       -13.0738470147        2.2479145905        4.4199534289
 H       -13.8023923394        0.6799124554        4.8334318022
 H       -15.9368113467        1.6271816880        2.0607875604
 H       -15.6534795939        0.2673945417        2.9818465385
 H       -15.0135055005        0.2181517856        1.2507250669
 H       -12.9057104516        6.8207914420       -1.7393724465
 H       -11.3456707657        7.3464955282       -1.7402092811
 H       -12.0537962976        7.0998359415       -0.1873611768
 H       -10.8238301403        3.8099421824       -2.8421260255
 H       -10.0640812590        5.4537242427       -2.6845386601
 H       -11.5980483678        5.3274803721       -3.4714665531
 H        -4.0346924470        7.2097764830        1.5065900547
 H        -4.8320669325        6.2463972104        0.3115072174
 H        -5.3679456304        6.1097667515        1.9814296625
 H        -5.9224581370       10.1224705867        2.0468103132
 H        -4.3746012772        9.2145683791        2.0263231485
 H        -5.7467293602        8.7234800132        3.0335672912
 H        -6.2006111149        8.9223208957       -4.2624960614
 H        -5.6732555088       10.2393378006       -5.3134296038
 H        -6.7918946114        9.2640430732       -5.7678616502
 H        -7.8091665176       11.5040330112       -6.4190964343
 H        -7.1139854757       12.6743587097       -5.3788805493
 H        -8.9168140339       12.2916238934       -5.2128885752
 Na      -10.2564471784        2.0047480021        1.2178924797
