117

 C       -11.4788933018       -0.3703295901       -8.9199719197
 C       -11.5336381389        0.7993705908       -7.9605260574
 O       -10.9429437154        0.6486653490       -6.9060794186
 C       -12.4168792723        2.0776684572       -8.3180238586
 C       -12.5668367582        2.9696781162       -7.0570521939
 O       -13.7082126402        3.1897100983       -6.6446768133
 C       -11.2921027628        3.4934959185       -6.3571024611
 C       -11.5706162067        4.3134496023       -5.0520274375
 C       -10.3863128380        5.0001098250       -4.3887846004
 O        -9.2529145519        4.8672430295       -4.7770429756
 C       -10.5201316249        5.8651438225       -3.0507124565
 C       -10.1926918525        5.1078181494       -1.7743823060
 O       -10.6879937028        5.5457629942       -0.7519456356
 C        -9.0841170540        4.1200461613       -1.5646438370
 C        -7.7201023726        4.7939689229       -1.8973412219
 C        -6.4977569568        4.1331876639       -1.2007928349
 O        -6.6181517086        2.9670234234       -0.8155683474
 C        -5.1185211731        4.8525094338       -1.0044540018
 C        -5.3485416671        5.6658217928        0.3401599664
 O        -5.5784210263        6.8684289894        0.2195962626
 C        -5.2755382138        4.9026791622        1.6255100917
 C        -5.9483422011        5.5620545671        2.8440434827
 C        -7.4626622743        5.7569334126        2.7167624787
 O        -8.1131493808        5.2528680359        1.8110019206
 C        -8.2738193101        6.7530481091        3.6846358328
 C        -9.1588138712        5.8297840741        4.5186122700
 O       -10.0039638700        5.1948428735        3.8674209379
 C        -9.0337937533        5.4433848269        6.0000888896
 C        -9.3709478562        3.9706915072        6.2428466950
 C        -8.3853571407        3.0217438816        5.5523202554
 O        -7.4106676709        3.3459230142        4.9002121043
 C        -8.6272129106        1.4857299781        5.6611050068
 C        -9.9535908155        1.0200501723        4.8098262927
 O       -11.0590591136        1.5506220698        5.0648413938
 C        -9.8176419096        0.0479359463        3.6452824903
 C       -10.9278991130        0.1272750306        2.6363783666
 C       -10.9835802385        1.4800590766        1.8643056013
 O       -10.0773942624        2.2861151761        1.8067981870
 C       -12.4024935378        1.8235103302        1.0726822042
 C       -13.0142658454        3.0366655348        1.7554532968
 O       -12.3700418931        4.0516516938        1.9728506663
 C       -14.5082977219        2.9846704902        2.0851996189
 C       -11.9211597879        2.1680874288       -0.3417354156
 C       -13.3156058597        0.5891795835        1.0351295848
 C        -7.4159670749        0.7582814225        5.0950566365
 C        -8.8960248685        1.0265804076        7.1116451106
 C        -7.3956267114        7.6369243793        4.5813121162
 C        -9.0428314273        7.7964389777        2.7216917820
 C        -3.9811185280        3.8551899128       -0.9613358356
 C        -4.9276396113        5.9237593535       -2.1523399988
 C        -9.7563172145        7.1798695203       -3.1501034257
 C       -12.0294777312        6.3561240989       -3.0160947841
 C       -11.5350888630        2.6642857691       -9.3956577766
 C       -13.7699535726        1.6652965862       -8.8812782906
 H       -12.3709498775       -0.4348620785       -9.6243292177
 H       -11.4066150298       -1.3957431332       -8.5505986170
 H       -10.5499940804       -0.3190724559       -9.5407966920
 H       -10.6573263524        4.1351581375       -7.0551887325
 H       -10.6217534230        2.6053053111       -6.0937211078
 H       -11.9420553199        3.5969201042       -4.3223391284
 H       -12.3741436378        5.0366884192       -5.2568235896
 H        -9.2385715848        3.2001887198       -2.1602338484
 H        -8.9658572874        3.8602178056       -0.5132568449
 H        -7.7486675962        5.8976845440       -1.6199054783
 H        -7.5114964331        4.8705955430       -2.9009655485
 H        -4.2089441700        4.7328505952        1.9335793478
 H        -5.6908600023        3.8571279056        1.5451686483
 H        -5.4702344198        6.5394642670        3.0610433304
 H        -5.7294786964        5.1029373718        3.7820169178
 H        -9.6718764649        6.1066820040        6.5783022524
 H        -7.9914665745        5.6117769151        6.3981433555
 H       -10.4278215524        3.7565703451        6.0252422335
 H        -9.2484581814        3.6851421861        7.3249480962
 H        -9.7727548587       -0.9545821058        4.0236739148
 H        -8.8556194498        0.3890761425        3.1962080950
 H       -11.8823559886       -0.1372256267        3.1020745597
 H       -10.7124268905       -0.5836709390        1.8717701948
 H       -15.0388958822        3.8779722035        2.0843037772
 H       -14.6664669254        2.5930328849        3.0703827053
 H       -15.0616374309        2.2486689466        1.4668730877
 H       -12.7627241217        2.5095296867       -1.1082184702
 H       -11.4451480078        1.2836367559       -0.8071150765
 H       -11.1106831187        2.9031973875       -0.3194269575
 H       -14.1827010484        0.7420844784        0.3136128005
 H       -13.7322575975        0.4411163841        1.9776413292
 H       -12.7628701045       -0.2447353916        0.6393010994
 H        -6.5514883055        0.8202410042        5.7466153350
 H        -7.0681293543        1.2338707279        4.2024227538
 H        -7.5538310315       -0.3192062963        5.0457170115
 H        -9.0631634565       -0.0714811946        7.1627766626
 H        -9.8149453594        1.4540328799        7.5184982500
 H        -8.0659715559        1.3369869240        7.7963842103
 H        -6.7425617145        6.9998413824        5.1582182713
 H        -8.0280652557        8.3712861782        5.1022512937
 H        -6.7602158010        8.3190338486        3.9513873400
 H        -9.6493932052        7.2584016290        1.9772052209
 H        -8.4011062074        8.5092078082        2.1748579103
 H        -9.7993561080        8.4348845215        3.2438598223
 H        -3.0250101886        4.3564742143       -0.9018077604
 H        -3.9209969257        3.2854377978       -1.8544657783
 H        -4.0623562752        3.2330993705       -0.0663675113
 H        -5.5977575219        6.7464905489       -1.9458574839
 H        -5.3734636475        5.5505108817       -3.0867446780
 H        -3.9290747095        6.3739882552       -2.1567393400
 H       -10.2289350237        7.8221842370       -3.8917315152
 H        -8.7656897828        7.1004911774       -3.6077378231
 H        -9.7961594914        7.6685030285       -2.1895687554
 H       -12.1106590885        7.1462900153       -2.2817194016
 H       -12.7525893934        5.5994551218       -2.6648670051
 H       -12.4043568009        6.7210708904       -3.9792588955
 H       -12.0154923092        3.5215563461       -9.7957190213
 H       -11.2823015811        1.9900983615      -10.2331816394
 H       -10.5857568176        2.9561559549       -8.9585842591
 H       -14.1748175210        0.7052956475       -8.4515413020
 H       -13.8409634494        1.6541872281       -9.9858116626
 H       -14.5275171022        2.5051606072       -8.6139403001
 Na      -10.3755155187        4.9087693291        1.4328517782
