117

 C       -11.5278133227       -0.4726731827       -8.9096327580
 C       -11.5941830022        0.7493888799       -7.9025860455
 O       -10.9650164866        0.7420591982       -6.8963107608
 C       -12.3771599032        2.0017026994       -8.3644197834
 C       -12.5691572851        2.9462849773       -7.0551188144
 O       -13.6794391005        3.1709184611       -6.6653487865
 C       -11.3101581707        3.5651359248       -6.4463611130
 C       -11.5574603413        4.1414650456       -5.0469928638
 C       -10.2795779948        4.8448127733       -4.3757791262
 O        -9.1207746577        4.6204848824       -4.7139106462
 C       -10.5837558748        5.9402556445       -3.1767915427
 C       -10.1863101000        5.3163254734       -1.7553368963
 O       -10.7831032033        5.7074753432       -0.7545723409
 C        -9.1369214366        4.1523912626       -1.6937001445
 C        -7.7359428606        4.7201298920       -1.8857029620
 C        -6.5610240448        3.9574349858       -1.2271226304
 O        -6.6717360118        2.8519048764       -0.8241259749
 C        -5.2492506963        4.8728127660       -1.0520959205
 C        -5.4064301739        5.6585868476        0.3342690251
 O        -5.7108892001        6.8012112738        0.3398867344
 C        -5.1136630572        4.9287923650        1.6582502205
 C        -5.8929854009        5.6135801265        2.8961658109
 C        -7.4070974901        5.8013929534        2.6493295054
 O        -7.9523764392        5.0876883368        1.8225485768
 C        -8.1866569571        6.7051321151        3.6114413374
 C        -9.2414038563        5.7426058949        4.3654845589
 O       -10.1821438137        5.2133576761        3.7619699546
 C        -9.0574692403        5.4650579374        5.8650989138
 C        -9.3156062947        3.9708469526        6.2527569190
 C        -8.3967788167        2.9583150253        5.5829222175
 O        -7.4234424180        3.3632777493        4.9478454396
 C        -8.6459672349        1.3341289883        5.6799829774
 C        -9.8652078666        1.1188323519        4.8169473809
 O       -10.9453436440        1.5636055571        5.0899365412
 C        -9.6869168268        0.1562734762        3.5471083493
 C       -10.9439046673        0.2380175928        2.7016930134
 C       -11.0223261687        1.6194715975        1.9671936708
 O       -10.0852113368        2.3681676160        1.9726534374
 C       -12.3136700686        1.8696287307        1.2270782085
 C       -13.0229709866        3.1110332318        1.7839533058
 O       -12.4836580300        4.2073803666        1.9241301791
 C       -14.5213518900        3.1267820366        2.0771616395
 C       -11.9721540430        2.1909242560       -0.2571031270
 C       -13.3164863783        0.6326648046        1.1886906934
 C        -7.4254979105        0.6317991118        5.1422735575
 C        -9.0055610088        1.1219463888        7.2199297899
 C        -7.2439287283        7.6280767251        4.5856228734
 C        -8.9941898262        7.7155368870        2.8220680828
 C        -3.9938563649        3.8934580299       -0.9619068917
 C        -4.9050376199        5.9409730505       -2.1255560822
 C        -9.6490996333        7.1750801549       -3.3391764500
 C       -12.1337419441        6.2936731877       -3.0003181581
 C       -11.4619792345        2.7021220579       -9.5129202060
 C       -13.8050751799        1.6508080189       -8.8456907069
 H       -12.4076582397       -0.7388237134       -9.4217640245
 H       -11.1105065051       -1.4372726073       -8.5961030327
 H       -10.7355048248       -0.2153816870       -9.6848064856
 H       -10.9691047560        4.4223972820       -7.0452166419
 H       -10.4475185622        2.8193421733       -6.4974581996
 H       -11.9466173175        3.3547301409       -4.4056800995
 H       -12.3496838495        4.8935447790       -5.1800523518
 H        -9.3404253700        3.4898396153       -2.5835105868
 H        -9.1611662069        3.5675980984       -0.8066095142
 H        -7.6903279430        5.8273391175       -1.5380229813
 H        -7.5372255185        4.9377425022       -2.9402760152
 H        -4.0848675721        4.9087235459        1.9619170003
 H        -5.3853286859        3.8611055882        1.6458190140
 H        -5.3634037556        6.5135235111        3.2458742469
 H        -5.8040968442        5.0323628212        3.7654585444
 H        -9.8407606980        6.0604679078        6.3204144074
 H        -8.1217197017        5.8322914348        6.3201281220
 H       -10.3042159497        3.7033126268        5.8639731952
 H        -9.4185358225        3.8008307386        7.3320916259
 H        -9.5332811133       -0.8780845421        3.9667943031
 H        -8.8488612318        0.5193242120        2.9851290729
 H       -11.8095746047        0.1857740250        3.3991015599
 H       -11.0481156092       -0.5575162662        2.0337821668
 H       -14.9760455413        4.0713998900        2.3306049567
 H       -14.7426455179        2.5094897173        2.9314652819
 H       -15.1335587414        2.6116501879        1.2839263281
 H       -12.9853239346        2.1489716319       -0.7782024604
 H       -11.3647012670        1.4354711641       -0.7786309676
 H       -11.4993546362        3.1665444821       -0.4727098446
 H       -14.1432967253        0.8841806312        0.5077123448
 H       -13.8316847686        0.4760190782        2.1390926154
 H       -12.8068602204       -0.2195261770        0.7400094225
 H        -6.6028102981        0.7118111976        5.7788868547
 H        -7.1056246449        1.2407080091        4.2750387751
 H        -7.4887718688       -0.4193330889        4.9725830372
 H        -9.2109912193        0.0477423871        7.4582707856
 H        -9.9697409154        1.5749513676        7.4498969029
 H        -8.2173053946        1.5622050396        7.9058269425
 H        -6.7802413896        6.9736481959        5.4043804354
 H        -7.9097459112        8.4424783600        4.9632376390
 H        -6.4582757728        8.1313583130        4.0781912602
 H        -9.7949288298        7.2012368638        2.1800445924
 H        -8.4260735018        8.3978270873        2.1903518301
 H        -9.6126659508        8.3608342920        3.4644317767
 H        -3.0902050289        4.4074873006       -0.6855728344
 H        -3.7346844070        3.3460759941       -1.8537595120
 H        -4.1951618826        3.2598650763       -0.1378968422
 H        -5.4703698555        6.9031073351       -2.1481248970
 H        -5.0905971570        5.5067023497       -3.0201281648
 H        -3.8743826667        6.2267462606       -1.8877870059
 H        -9.8188005956        7.8080748645       -4.1866465823
 H        -8.6598782072        6.7777573891       -3.6339664426
 H        -9.6878299900        7.8342140557       -2.4449996793
 H       -12.1820853375        6.9698395313       -2.1315898838
 H       -12.7326101298        5.4117513813       -2.6325607964
 H       -12.7016705221        6.7035002413       -3.8131720927
 H       -11.7835962215        3.7351677370       -9.5173937364
 H       -11.4795435133        2.3077221334      -10.5600783777
 H       -10.4052089128        2.7030365403       -9.1842008390
 H       -14.3016693194        0.8806124341       -8.2222425449
 H       -13.8325301660        1.3096936138       -9.9324572852
 H       -14.4510615135        2.5638557565       -8.8486118471
 Na      -10.3720447822        4.8891142713        1.2965057863
