117

 C       -11.6652383028       -0.5173215529       -8.7766236791
 C       -11.5490517804        0.7282441010       -7.8617367449
 O       -11.0003953429        0.7068975841       -6.8073996576
 C       -12.3023413863        2.0313332376       -8.3859005161
 C       -12.4664393697        3.0234365129       -7.1692738321
 O       -13.5468008352        3.0746962376       -6.6297505273
 C       -11.2459749793        3.6954584881       -6.6049778273
 C       -11.5032948535        3.9421536953       -5.0903043559
 C       -10.3471855720        4.5985491546       -4.3605643425
 O        -9.2155582048        4.1340337813       -4.5182501174
 C       -10.6220909381        5.7692463270       -3.3402657874
 C       -10.1680644693        5.2544026216       -1.8726156187
 O       -10.6234112642        5.7847692550       -0.8665567102
 C        -9.0972906927        4.2320294644       -1.7011320789
 C        -7.7314467593        4.9391362493       -1.8298885428
 C        -6.6323471371        4.0240914027       -1.2862157840
 O        -6.7601310927        2.9079660086       -0.9149181250
 C        -5.2006371665        4.8085616232       -1.0152767174
 C        -5.5076634562        5.5688165581        0.3743248628
 O        -6.1603046266        6.5706450532        0.3237150510
 C        -5.0784645370        4.8461799116        1.6578385307
 C        -5.8376369471        5.5269211812        2.8463795605
 C        -7.2956084582        5.6264563389        2.5929713346
 O        -7.7912014572        4.9232264434        1.7239466826
 C        -8.1170377703        6.5608853356        3.5551520915
 C        -9.2411422603        5.6843808298        4.2526745185
 O       -10.2304794245        5.2150198795        3.6706333170
 C        -9.1673269123        5.4294562158        5.7445024101
 C        -9.4692504553        3.9586925286        6.0283173049
 C        -8.3001033356        3.0008642949        5.6234906167
 O        -7.2727421201        3.2815612880        4.9882144085
 C        -8.4992448810        1.4895849435        5.9687193518
 C        -9.7290665219        1.1198077776        4.9302902899
 O       -10.8303749619        1.5959940643        5.2030291752
 C        -9.4970730418        0.5046749352        3.5057593204
 C       -10.8099411269        0.5069736411        2.6195085964
 C       -11.1925592578        1.8687339955        2.1411596629
 O       -10.3738208561        2.7320672160        2.2416333471
 C       -12.5399073790        2.0635261426        1.3732617661
 C       -13.2521152638        3.4754234971        1.8332117027
 O       -12.6136254741        4.5030963659        1.6242724310
 C       -14.6602774181        3.4400971812        2.2743324954
 C       -12.1358648673        2.2781117574       -0.1329160623
 C       -13.5505220819        0.8390734515        1.4152420409
 C        -7.1839986255        0.6896054635        5.7257755586
 C        -9.0822229576        1.2459304222        7.3709612210
 C        -7.2716333200        7.2883797451        4.6315583076
 C        -8.6534466336        7.5544452684        2.5731618456
 C        -4.1142520390        3.7312677458       -0.7937168840
 C        -4.8884576234        5.8290254403       -2.1004497851
 C        -9.7555948282        6.8959141563       -3.8781815576
 C       -12.0694257728        6.3203230441       -3.4020412723
 C       -11.4484887610        2.7412850709       -9.5149068580
 C       -13.7284827229        1.6953964402       -8.8547222188
 H       -12.3337766315       -1.2549488420       -8.3541297034
 H       -10.6949898811       -0.9851036963       -8.9037863234
 H       -11.9494681699       -0.4356479438       -9.8646793843
 H       -11.0640722004        4.6036492522       -7.1987829311
 H       -10.3193458115        3.1223382288       -6.8665016227
 H       -11.5646224425        2.9074094335       -4.7601305059
 H       -12.4993655280        4.3696607029       -4.9131911515
 H        -9.1700761024        3.3995687924       -2.4561976818
 H        -9.2882961748        3.7957673781       -0.7229567380
 H        -7.7256032815        5.8949948474       -1.2645967085
 H        -7.5851807529        5.3194204276       -2.7425299746
 H        -3.9706841795        4.8049333392        1.8254396278
 H        -5.3776261342        3.7519768406        1.6289523798
 H        -5.3532527339        6.5419794981        3.0702147454
 H        -5.7491095698        4.9632112022        3.7823898217
 H        -9.9507258701        6.0280057909        6.1892706208
 H        -8.2127229151        5.7229289588        6.2732715182
 H       -10.3790460689        3.6424001516        5.5080049277
 H        -9.8188970466        3.7914338663        7.0788912798
 H        -9.1439236462       -0.4797855856        3.7151015017
 H        -8.7137131838        1.1248566835        3.0313440727
 H       -11.7242511067        0.1052371595        3.1488843763
 H       -10.7323769364       -0.1411411288        1.7595318547
 H       -14.7843768399        4.1562475562        3.0187767127
 H       -15.0329668541        2.5495964576        2.6934067801
 H       -15.3912188999        3.7351686903        1.4669287656
 H       -12.9888253739        2.3124982566       -0.8935968945
 H       -11.6411288039        1.3963577228       -0.4488008629
 H       -11.5082476272        3.1192310832       -0.2922042443
 H       -14.4867848677        1.1303272182        0.8817275394
 H       -13.9164085144        0.6819613027        2.3720600645
 H       -13.0874401458       -0.0300150776        0.9896558040
 H        -6.3685026986        0.9769894260        6.3750290087
 H        -6.8258512503        0.7865569479        4.6633129494
 H        -7.3587825612       -0.3930802955        5.9489379989
 H        -9.3307658987        0.2267309012        7.5648158368
 H       -10.0170650948        1.6855676465        7.3880020970
 H        -8.4597732821        1.6464416690        8.1590775812
 H        -6.5722313546        6.6696042607        5.2432261135
 H        -7.9436218565        7.6365571557        5.4270038197
 H        -6.7547258406        8.0619896437        4.0860206848
 H        -9.2939311510        7.1705101640        1.7854885678
 H        -7.8544331906        8.1041663169        2.1547795725
 H        -9.3250209920        8.2615368777        3.0135890712
 H        -3.2239171209        4.1171063280       -0.2534526940
 H        -3.7374009729        3.3239980784       -1.7357923042
 H        -4.4720456582        2.8547967430       -0.1995924769
 H        -5.5759035482        6.7224463260       -2.0746956527
 H        -4.9898385479        5.3697577979       -3.0504059707
 H        -3.8999379768        6.2977905734       -1.8723873884
 H       -10.1568407601        7.1710354980       -4.8377094833
 H        -8.7049925324        6.6499652784       -4.0713392715
 H        -9.9292514575        7.8309633137       -3.3980225279
 H       -12.2692199590        7.1778745851       -2.7555221689
 H       -12.8164131900        5.5694804545       -3.0808057496
 H       -12.3468058166        6.5918727492       -4.3998755481
 H       -11.7811172714        3.7065352434       -9.7573473307
 H       -11.3562948593        2.1307282337      -10.4359205758
 H       -10.4513149559        2.8417611882       -9.0866475237
 H       -14.4687183456        1.6082573813       -8.1115723513
 H       -13.7515063370        0.7846753164       -9.4213849970
 H       -14.0993410110        2.5038695065       -9.5023474112
 Na      -10.0652950103        4.7792144844        1.2948830121
