117

 C       -11.6163456850       -0.5892800987       -8.6754752602
 C       -11.6543271067        0.6923026887       -7.8819633777
 O       -11.0570698638        0.6749354732       -6.8419755113
 C       -12.3839957119        1.9584465529       -8.4624093588
 C       -12.6424008613        2.8856490783       -7.2689757018
 O       -13.7492214655        3.0708954581       -6.8210803815
 C       -11.3973417185        3.5352978922       -6.5795491595
 C       -11.5471895507        3.6822856224       -5.0740189617
 C       -10.4092017387        4.3905029681       -4.4090312101
 O        -9.2786200734        4.0719729900       -4.7086245120
 C       -10.5232420273        5.5970214046       -3.3565871169
 C       -10.1580744795        5.1736764377       -1.8910721032
 O       -10.7969598205        5.6823820923       -0.9900452226
 C        -8.8950815473        4.3924530839       -1.4689782062
 C        -7.5281236772        5.0035263501       -1.9065861928
 C        -6.4372746380        4.1019681131       -1.3398342701
 O        -6.6690148832        2.9679941075       -1.0969137354
 C        -4.9943431633        4.6201202359       -1.0100877649
 C        -5.3115456795        5.3755917696        0.3279614235
 O        -5.9558833293        6.4008718550        0.3263978664
 C        -5.0378699505        4.6518482968        1.6801266103
 C        -5.7305177052        5.2708189017        2.8838091816
 C        -7.2481748806        5.4272153381        2.7230333639
 O        -7.9508620046        4.6949641646        2.0216588501
 C        -7.9887631562        6.6139982296        3.4600247038
 C        -9.1484724514        5.8811530908        4.1871607065
 O       -10.1116716396        5.4903050884        3.5317516340
 C        -9.1448473819        5.5969449039        5.7354437472
 C        -9.5242986490        4.1673221248        6.1691808738
 C        -8.4142744875        3.1318642155        5.7443422329
 O        -7.4273846149        3.5958758783        5.2005794939
 C        -8.7143671627        1.5296201789        5.9332527732
 C        -9.8287588505        1.1424476125        4.9799748216
 O       -10.9918497911        1.0710287381        5.4506001130
 C        -9.5733437698        0.6838042541        3.5379744520
 C       -10.8338931005        0.5848499982        2.6476110766
 C       -11.1627144664        2.0226532415        2.1887650505
 O       -10.3871064834        2.9485799199        2.2622357661
 C       -12.5824399692        2.2359999919        1.4777640860
 C       -13.0694808918        3.6002591709        1.8095042516
 O       -12.4615245371        4.5706676654        1.4135449300
 C       -14.3526878203        3.8000683459        2.5728078672
 C       -12.2553823917        2.1326990933       -0.0560908995
 C       -13.5953423393        1.1088060773        1.8293591449
 C        -7.4368873403        0.7390902812        5.6412223670
 C        -9.1296287062        1.2989307491        7.3951837255
 C        -7.1262002077        7.4559232046        4.3961184014
 C        -8.6848025082        7.5743399413        2.5059332859
 C        -4.0577809998        3.4733488076       -0.9218079036
 C        -4.6870702171        5.6824623302       -2.1447958567
 C        -9.6538940291        6.7330343522       -3.8544255743
 C       -11.9674582827        6.1840233772       -3.3758334055
 C       -11.3576131281        2.5640408482       -9.4856675916
 C       -13.6647594794        1.6721700775       -9.2329580718
 H       -11.7075664279       -1.4436803733       -8.0036238453
 H       -10.6939735489       -0.6949399668       -9.1456119870
 H       -12.3495982356       -0.8391847302       -9.4431551640
 H       -11.0863337353        4.4687399123       -6.9958638703
 H       -10.5823702672        2.9394813009       -6.8523195183
 H       -11.6587844006        2.6829737137       -4.5877701032
 H       -12.5096840447        4.1515335851       -4.8474360377
 H        -8.9487217917        3.4017058646       -1.8798344239
 H        -8.9542385567        4.1600480846       -0.3679480411
 H        -7.4808514216        6.0829449035       -1.6405345267
 H        -7.4210277381        5.0980102037       -2.9810424339
 H        -3.9956796793        4.4599012998        1.8443819072
 H        -5.4560861372        3.6905722179        1.6553783127
 H        -5.2414640250        6.2326513898        3.0804316699
 H        -5.6023252351        4.5367264013        3.7223526725
 H        -9.9396016613        6.2008873055        6.1638243407
 H        -8.2118949818        5.9298407599        6.1936497803
 H       -10.5103129857        3.9750841605        5.7746603229
 H        -9.7927291276        4.0952077981        7.2176841878
 H        -9.1322686580       -0.2945224403        3.6137182163
 H        -8.7922614978        1.4272976332        3.2003074136
 H       -11.6847241567        0.0797551836        3.1063424469
 H       -10.6655400715       -0.1315752822        1.7837081656
 H       -14.6490197358        4.7746805336        2.9189491118
 H       -14.3104148770        3.1590642500        3.4798004691
 H       -15.2740093667        3.4389506792        2.0056256463
 H       -13.1127526304        2.4666767497       -0.7552346423
 H       -12.0345114132        1.1504239226       -0.3415730314
 H       -11.4760089629        2.7562784519       -0.2994774024
 H       -14.5623860747        1.3530324491        1.2434474437
 H       -13.8123182645        0.9747354388        2.8721472474
 H       -13.1857799987        0.1434535324        1.4600505801
 H        -6.6981350320        0.9545963608        6.4180462762
 H        -7.0527827585        0.8698346400        4.6662379511
 H        -7.6622133131       -0.3251710852        5.6656169907
 H        -8.9277719380        0.2680203763        7.7845634581
 H       -10.2086168228        1.4857396143        7.5428409871
 H        -8.5054277230        1.9894902454        8.0177322352
 H        -6.6674076273        6.8903989336        5.1457735254
 H        -7.7525783473        8.0309054218        5.0178180900
 H        -6.3675289806        7.9529886005        3.7789697342
 H        -9.4754401385        7.1572427763        1.8741847483
 H        -7.9521494733        8.0175456443        1.7984037331
 H        -9.2331909247        8.4060129194        3.0069131155
 H        -3.0639790227        3.7067274136       -0.6034930358
 H        -4.0113583235        3.0568422143       -1.8902179706
 H        -4.4322543917        2.6137160856       -0.3652710494
 H        -5.3168076034        6.5046599678       -1.8958049220
 H        -4.8628212522        5.3139500264       -3.1711848960
 H        -3.6603261265        6.0753939699       -2.1472596876
 H       -10.2428306864        7.4318683741       -4.4723163446
 H        -8.6413263082        6.4645197102       -4.1983724151
 H        -9.5021285736        7.3718841497       -2.9809799588
 H       -12.1424446300        6.9855826079       -2.6596105208
 H       -12.7367628741        5.4224160008       -3.1692301010
 H       -12.2627757297        6.7154734388       -4.3097027060
 H       -11.9328503435        3.0457030158      -10.2968276608
 H       -10.8693076886        1.6780985109       -9.9307946789
 H       -10.6309376668        3.2756921694       -9.0635413851
 H       -14.3109372894        0.8712376291       -8.9028639935
 H       -13.4437599893        1.4420866227      -10.2459367597
 H       -14.3269369393        2.5733867670       -9.1702026256
 Na      -10.4809375657        5.2345483087        1.2229541832
