117

 C       -11.6960170297       -0.6862168999       -8.7544891724
 C       -11.6361663256        0.5507366619       -7.9921636299
 O       -11.2250713565        0.5380716815       -6.8095805576
 C       -12.2872659531        1.8775066141       -8.5084686988
 C       -12.6661719902        2.8310209027       -7.2821984085
 O       -13.8459121654        3.0883742253       -7.1103846654
 C       -11.4909999523        3.5408725295       -6.5196872453
 C       -11.6048546202        3.6511710925       -4.9551976164
 C       -10.3850815991        4.4301714086       -4.4220057073
 O        -9.2745786613        4.0580312792       -4.7130742406
 C       -10.5901560532        5.5940462587       -3.3920395913
 C       -10.1475522968        5.2278776548       -1.9546602424
 O       -10.8376178812        5.5622630994       -0.9923527359
 C        -8.8852688376        4.3870581214       -1.6866919504
 C        -7.4991028062        4.8808865869       -2.0251600985
 C        -6.4001816664        3.8986615500       -1.4690519096
 O        -6.6799319535        2.6975351857       -1.2365219501
 C        -5.0211451739        4.5703521702       -1.0346936269
 C        -5.2315677117        5.2228822885        0.3903458295
 O        -5.5022575913        6.4321015399        0.4912982633
 C        -5.2637624775        4.4006267547        1.6560047386
 C        -5.8372279861        5.2079164324        2.8190288346
 C        -7.2880978383        5.4961706721        2.5551911256
 O        -7.9598294153        4.7771902008        1.8415922517
 C        -7.9944202062        6.5842829582        3.4275561714
 C        -9.2254454666        6.0102446349        4.2797950671
 O       -10.2978695513        5.7248781303        3.7744969700
 C        -9.0657927844        5.7281541631        5.7457437349
 C        -9.5696000273        4.2888826477        6.0356657046
 C        -8.5416591665        3.2392374048        5.6912580544
 O        -7.4810870751        3.5955679483        5.2273282194
 C        -8.8357971328        1.6518405547        5.9287206018
 C       -10.0259684878        1.1122099500        5.0820874903
 O       -11.1278400273        0.9040004899        5.4955970462
 C        -9.5970940176        0.7657920762        3.6452283310
 C       -10.8263075590        0.7433776569        2.7702708281
 C       -11.1463662805        2.0867312357        2.1159942941
 O       -10.3243354272        3.0115519070        2.0806709087
 C       -12.6241842071        2.2979561015        1.5286426795
 C       -13.1921303434        3.7543606854        1.8372215567
 O       -12.7463509991        4.7519759592        1.3046013966
 C       -14.2891131515        3.8519747576        2.8781782469
 C       -12.4086718253        2.0690334504       -0.0376986513
 C       -13.5596612827        1.1864753537        2.0482123681
 C        -7.4955043165        1.0305350182        5.5729327420
 C        -9.1457246181        1.4916749847        7.4495159629
 C        -6.9823906140        7.3468265190        4.3609897106
 C        -8.4957744085        7.6493186660        2.4341431805
 C        -3.8716276220        3.5293802635       -0.9450756261
 C        -4.4965084082        5.6496054866       -2.0415003553
 C        -9.4967182938        6.7321392983       -3.8442547187
 C       -12.0190332346        6.1042781332       -3.3398960370
 C       -11.3304165501        2.6111264493       -9.4395419451
 C       -13.5631135897        1.4725432503       -9.2586785587
 H       -11.4441239185       -1.5566028437       -8.1290767480
 H       -10.9871980614       -0.8037759152       -9.6106353458
 H       -12.6702239430       -0.9410950227       -9.0903015685
 H       -11.4474036859        4.5600941646       -6.9638470029
 H       -10.4829426309        3.1539781872       -6.8226600479
 H       -11.4243128845        2.6790033901       -4.5182120286
 H       -12.5953945013        3.9051443188       -4.5859475671
 H        -9.0255201532        3.3867876196       -2.1903609542
 H        -8.9040105162        4.0555694625       -0.6651309331
 H        -7.3290493297        5.8985454645       -1.7824182409
 H        -7.3381194145        4.8469704537       -3.1453556795
 H        -4.2290787379        4.0151176853        1.8580009852
 H        -5.8955256352        3.4626669895        1.4939993381
 H        -5.1907670437        6.0926133151        2.9152312096
 H        -5.8703345524        4.5900562239        3.7237483281
 H        -9.6132123497        6.5114403834        6.3145920072
 H        -8.0260705796        5.7291092864        6.0609104106
 H       -10.5017233966        3.9554893414        5.5153472941
 H        -9.9156885313        4.1733136536        7.0714468631
 H        -9.1841595903       -0.2573729213        3.7745964140
 H        -8.8198864944        1.3984252282        3.2987509009
 H       -11.7491183433        0.3964918880        3.2484808108
 H       -10.7202069284       -0.0228779178        2.0159505094
 H       -14.7856954063        4.8294723294        2.7761783221
 H       -13.9535884723        3.7538741726        3.9105690584
 H       -15.0971932874        3.2291577176        2.7552626069
 H       -13.2937414075        1.9067896770       -0.5215336735
 H       -11.6774950677        1.2428256882       -0.2327167051
 H       -11.9829674882        2.9843384279       -0.5113182230
 H       -14.4962147593        1.2932637078        1.6190789835
 H       -13.5766200084        1.2546044871        3.1752071581
 H       -13.2254893913        0.1754098672        1.8287908179
 H        -6.7547503361        1.3447360061        6.3139586877
 H        -7.2358757739        1.3938989373        4.5669057132
 H        -7.5379693383       -0.0382993324        5.3934476015
 H        -9.2501164400        0.4535417600        7.6309710268
 H       -10.0510020204        2.0245300840        7.7391866991
 H        -8.3414096933        1.7684957992        8.0642329410
 H        -6.3261194245        6.7097140765        4.9941018152
 H        -7.5023847586        7.9730290649        5.1329498829
 H        -6.3303180307        7.9722410407        3.7413368528
 H        -9.2262638648        7.2402060721        1.7546382158
 H        -7.7671094038        8.0470667392        1.7624735561
 H        -9.0032122392        8.4468752267        2.9278322843
 H        -3.0122780799        3.9914387672       -0.4324245070
 H        -3.5003184874        3.0004281523       -1.8476055465
 H        -4.1766781026        2.7143930645       -0.2916265662
 H        -5.1350659197        6.5256498976       -2.1744147772
 H        -4.1899048457        5.1721962869       -2.9940187072
 H        -3.5300155678        5.9763861527       -1.7095193126
 H        -9.8292906475        7.1653759504       -4.7911759139
 H        -8.6081198926        6.1522763143       -3.9694840943
 H        -9.1871617133        7.5065266957       -3.1117924542
 H       -12.1053127812        7.0948195738       -2.8903666834
 H       -12.6772428721        5.4350725446       -2.8133508517
 H       -12.4706924955        6.3363261778       -4.2907537666
 H       -11.6290589651        3.6658587973       -9.4955711405
 H       -11.3480825797        2.1503864528      -10.4137286818
 H       -10.3309421202        2.5463861229       -9.0138197981
 H       -14.1346775793        0.8258360819       -8.6181473294
 H       -13.3959510585        0.8806914123      -10.1319832712
 H       -14.1856284558        2.2645913579       -9.4957788509
 Na      -10.1748206078        5.1532207868        1.4660175820
