117

 C       -11.5191111052       -0.8742084591       -8.9072664876
 C       -11.8639783160        0.1803800543       -7.9159374072
 O       -11.9450339494       -0.0988701296       -6.7429038381
 C       -12.3345505543        1.5880221969       -8.5583232154
 C       -12.4350737669        2.6462654402       -7.3967912044
 O       -13.5035037826        3.0966755356       -7.0629639214
 C       -11.1228910518        3.0829808604       -6.6197041580
 C       -11.3378958044        4.3771085415       -5.7643023067
 C       -10.3137933850        4.3821929960       -4.6539020016
 O        -9.3050632639        3.6974376799       -4.7053728934
 C       -10.4148428332        5.4535858884       -3.4092344425
 C        -9.7966726225        5.0356413423       -1.9342724429
 O       -10.3768618172        5.5091453638       -0.9637871710
 C        -8.6465409012        3.9461994848       -1.8183023303
 C        -7.2431233999        4.6268664087       -1.9535406724
 C        -6.1171004517        3.5648937007       -1.6228418369
 O        -6.4417585978        2.3958274798       -1.6326474991
 C        -4.7444509566        4.1734052578       -1.2796443971
 C        -4.7819437260        4.9686101576        0.0710262641
 O        -4.4076321715        6.1189528042        0.1996030181
 C        -5.2365938951        4.1081175975        1.2742636869
 C        -5.8923304522        4.8424494919        2.5565509316
 C        -7.2229689683        5.5961931811        2.3653313072
 O        -7.8592236610        5.4135999904        1.3730757866
 C        -7.7885939549        6.6555526078        3.4495633932
 C        -9.0851778637        5.9809435933        4.0752556665
 O        -9.9361319355        5.5600390114        3.3295240809
 C        -9.3783178536        6.1894446973        5.5817958062
 C        -9.8634696102        4.8788552555        6.2169586101
 C        -8.9495749435        3.6824725899        5.6776587893
 O        -8.1517883570        3.9889029046        4.8029829834
 C        -9.1119639811        2.2003503975        6.1959236486
 C       -10.4021679104        1.7422764867        5.3625705303
 O       -11.5036541584        2.0771921075        5.6514728614
 C       -10.0812277917        0.9468907905        4.0940272639
 C       -11.2952572845        0.7049165211        3.1284141398
 C       -11.5076252103        1.9926257761        2.2665816382
 O       -10.5303761656        2.6529785136        1.9867750715
 C       -12.8750162309        2.5341571469        1.8441571473
 C       -13.1694810233        3.8862720498        2.6064869539
 O       -12.4917252740        4.9070955491        2.4183417628
 C       -14.2320786918        3.9206320154        3.6715239797
 C       -12.8418814440        2.8709177965        0.2901650789
 C       -13.9867720215        1.4397745014        2.2376772039
 C        -7.8209492206        1.5285759161        5.8395699531
 C        -9.4165493375        2.1296578288        7.7609712671
 C        -6.6660778864        6.9957767950        4.5296379910
 C        -8.2701855036        7.8811361053        2.6969302636
 C        -3.6374948896        3.0765724834       -1.1874960122
 C        -4.3047326095        5.1044983171       -2.4909741651
 C        -9.6491908551        6.7299308480       -3.7788865977
 C       -11.9088692648        5.9629284678       -3.2207213052
 C       -11.3260367480        1.9802406830       -9.6450439393
 C       -13.7383266851        1.3815357497       -9.2027551457
 H       -11.5979365095       -0.5497050098       -9.8873342040
 H       -12.1600948992       -1.7103735713       -8.8850444022
 H       -10.5679637856       -1.4076861989       -8.8464135715
 H       -10.3849980876        3.2567238067       -7.4350229476
 H       -10.8902118976        2.2956932647       -5.9630447679
 H       -12.3792110997        4.3582176953       -5.4099479120
 H       -11.1901828900        5.2518869740       -6.3846431836
 H        -8.8033631959        3.2470476149       -2.5884505609
 H        -8.7608760663        3.4613032545       -0.8025879564
 H        -7.1416609669        5.3334808537       -1.1329934492
 H        -7.2135961211        5.0623098835       -2.9021800508
 H        -4.2736697148        3.6312326362        1.6353322507
 H        -5.8468083693        3.3047433993        0.8588062791
 H        -5.0587449870        5.4456709927        2.8968385737
 H        -6.0931219663        3.9530316078        3.2105103782
 H       -10.1474223803        6.9526039264        5.6346530095
 H        -8.4698819662        6.5348044723        6.0896418483
 H       -10.9011995714        4.6420959121        5.9432703500
 H        -9.7278753771        5.0625153677        7.2959704828
 H        -9.6195394011        0.0393781233        4.4678293175
 H        -9.2664836515        1.5101100905        3.6044666647
 H       -12.1901219735        0.4758577037        3.6836892260
 H       -11.0762513863       -0.1833147082        2.4146447602
 H       -14.7099464232        4.8714701564        3.8631571274
 H       -13.9165955285        3.5537629974        4.6398382680
 H       -15.0090129805        3.1141629006        3.4328869239
 H       -13.7956592866        2.7482338096       -0.1280095212
 H       -12.2091760662        2.2139058584       -0.2147046111
 H       -12.4405892933        3.8660216198        0.1358309870
 H       -15.0297765138        1.7337179957        1.9043325679
 H       -14.1747481142        1.3111739708        3.2547001510
 H       -13.6462623425        0.4877454864        1.8055646001
 H        -7.1079699305        1.9799983897        6.5234715967
 H        -7.5469220158        1.8712055266        4.8737452576
 H        -7.7553451556        0.4847812055        6.1035327360
 H        -9.5484468403        1.0674442936        8.0234546502
 H       -10.3297213909        2.5638225993        8.1287173594
 H        -8.5486488798        2.6268463710        8.2441580545
 H        -6.3578320620        6.0857094834        5.1191209821
 H        -7.0190704922        7.7802527427        5.2081222685
 H        -5.7886821519        7.3371863875        3.9669765918
 H        -9.1227685850        7.6129384537        2.0196728280
 H        -7.5296397834        8.3806377733        2.0466059851
 H        -8.7513158273        8.6900094945        3.3062342553
 H        -2.7230367450        3.5640646130       -0.8796505207
 H        -3.4533105705        2.6053038669       -2.1186841512
 H        -3.7674840522        2.3341255597       -0.4057887249
 H        -5.1283293933        5.7884722988       -2.7331494445
 H        -4.1231330232        4.5767675839       -3.3637594388
 H        -3.4828962754        5.7859724063       -2.1739010962
 H       -10.0963498803        7.1555555421       -4.7139943815
 H        -8.5753262211        6.5507807365       -4.0001838386
 H        -9.9041650280        7.4538427288       -3.0046874435
 H       -12.1690757440        6.6102475331       -2.3869858882
 H       -12.6881489065        5.1824966327       -3.1246904751
 H       -12.2792641607        6.4973754428       -4.1132566329
 H       -11.2401935248        3.0737094661       -9.6094017225
 H       -11.6384182060        1.6874291397      -10.6572106537
 H       -10.3348841627        1.5679659112       -9.3864510006
 H       -14.4343774040        1.0044769038       -8.5002387128
 H       -13.7285353433        0.7926168123      -10.1160378945
 H       -14.0854421580        2.3868646131       -9.4611188138
 Na      -10.2892622392        4.9140803668        1.2607449578
