117

 C       -11.5139681202       -0.9211183485       -8.9823118029
 C       -12.0041841022        0.0542498076       -7.9631977503
 O       -11.9012457991       -0.1919281559       -6.7456802094
 C       -12.3308396203        1.5489581427       -8.4153621552
 C       -12.3463499670        2.6808729116       -7.3487218408
 O       -13.4250280213        3.2259058753       -7.1664483943
 C       -11.0769515496        3.0609765944       -6.6350270960
 C       -11.3017813006        4.3232240862       -5.7009825931
 C       -10.2141290907        4.3523657880       -4.6057186095
 O        -9.2558883256        3.6302792883       -4.7220964150
 C       -10.4597440628        5.4110580219       -3.4531957283
 C        -9.9240931111        4.9638314790       -2.0627692518
 O       -10.4521114681        5.3944098422       -1.0274298069
 C        -8.6735223244        4.1597849745       -1.9178013030
 C        -7.2454152281        4.7370449500       -2.0095814491
 C        -6.1807521962        3.5647197935       -1.6549549567
 O        -6.4815294215        2.3575414722       -1.6902164605
 C        -4.8132939174        4.1749379408       -1.3599858891
 C        -4.8191236978        4.9303377166        0.0633178293
 O        -4.3379887501        6.0408362283        0.0615969711
 C        -5.2440199369        4.1789649968        1.3274022347
 C        -5.8178266402        4.9258878244        2.5338606571
 C        -7.1346551584        5.5917322637        2.2643044084
 O        -7.9111985367        5.2179952111        1.3870209359
 C        -7.7564270480        6.6316318508        3.3209854219
 C        -9.0690072570        6.0356283755        4.0425260282
 O        -9.9216306624        5.4886136030        3.3683015254
 C        -9.2887681242        6.2172873802        5.5937111121
 C        -9.8095170053        4.9652650234        6.3540828116
 C        -9.0048279998        3.7852102706        5.8014428762
 O        -8.1789916463        3.9537880786        4.9017756665
 C        -9.1574110870        2.3702424803        6.2313259910
 C       -10.4266154330        1.7654245950        5.3286736289
 O       -11.5288049202        2.1351666492        5.5561277393
 C       -10.1334584479        0.8569976799        4.0957788606
 C       -11.3896319803        0.7914185072        3.2402610304
 C       -11.5109600371        2.0835324336        2.3965811213
 O       -10.5029101704        2.6116857311        1.9967356245
 C       -12.9077207405        2.5746027449        1.8672813030
 C       -13.1858571456        3.8695687516        2.6707583584
 O       -12.3911726262        4.8036403986        2.5173349450
 C       -14.2272319079        3.9625126289        3.7632137292
 C       -12.8006706027        2.8914918243        0.3789927755
 C       -14.1145398633        1.5330973376        2.0906210413
 C        -7.8472029273        1.6215931885        5.8973741679
 C        -9.5629609190        2.1524222257        7.7000939350
 C        -6.6535933195        7.0425387192        4.4229858996
 C        -8.1546922956        7.9550365500        2.7103713160
 C        -3.7388804266        3.0230446475       -1.1136171070
 C        -4.3550671151        5.1097256891       -2.4460519644
 C        -9.5807856098        6.6569824790       -3.7914351975
 C       -11.8767326732        5.9033897766       -3.3033118339
 C       -11.3195900921        1.9464574768       -9.5842258728
 C       -13.7554077721        1.5042439347       -9.0309878868
 H       -11.6987754145       -0.7296098541      -10.0127199916
 H       -11.7951035567       -1.9682270612       -8.7903530715
 H       -10.4531098261       -1.0735275221       -8.9243807773
 H       -10.3039577592        3.2386995730       -7.4009960965
 H       -10.9303703298        2.1460136170       -6.0234402622
 H       -12.3285863218        4.2636267853       -5.3498471287
 H       -11.1962728835        5.1550155755       -6.3624989462
 H        -8.7168890204        3.3313672176       -2.7189440194
 H        -8.7896838492        3.7578962892       -0.9565183410
 H        -7.0706395190        5.6210233533       -1.2947901596
 H        -7.0998454841        4.9597190857       -3.0645468787
 H        -4.3057959273        3.6143270074        1.6400681316
 H        -5.9689603494        3.4038149687        0.9429102229
 H        -5.0401413320        5.6554835207        2.7583341020
 H        -5.9379198087        4.1754327839        3.2700188920
 H       -10.0002492900        7.0238348318        5.6804090485
 H        -8.3021109663        6.5687197762        6.0078907820
 H       -10.8644741772        4.7901339238        6.1366821855
 H        -9.5654432808        5.0900482019        7.4392177894
 H        -9.9080517911       -0.0964778912        4.5403955946
 H        -9.2300379970        1.1889837873        3.5579536229
 H       -12.2763883787        0.6462807430        3.8766463299
 H       -11.3179503083        0.0197766351        2.5423613625
 H       -14.4441252402        4.9861956653        4.1442431337
 H       -13.8742725976        3.4169668785        4.6140060223
 H       -15.1130794124        3.3955364266        3.5817256476
 H       -13.7576401162        2.9473811732        0.0114750899
 H       -12.3895044243        1.9972965799       -0.1265981851
 H       -12.1470114914        3.7614887027        0.1520177071
 H       -15.0873221481        1.9059550663        1.8372828162
 H       -14.2774449390        1.2994612186        3.1479426480
 H       -13.8664951234        0.6215943366        1.5901621664
 H        -7.0969462344        2.0892886900        6.4776151785
 H        -7.6192221922        1.8309586221        4.8316544568
 H        -7.8135667557        0.6252379499        6.3003921949
 H        -9.6732810426        1.0941197228        7.8637818046
 H       -10.4928870295        2.5257962445        8.0168576177
 H        -8.7565068727        2.6007449311        8.2840847363
 H        -6.4153289628        6.1970349585        5.1778842357
 H        -7.0109418831        7.8993829692        5.0255266637
 H        -5.7807557104        7.2528566461        3.8629567038
 H        -9.0393080200        7.8865855867        2.0336622192
 H        -7.3769710963        8.4324266128        2.1487995907
 H        -8.5446635879        8.6655354031        3.4160301427
 H        -2.7688867279        3.4008562493       -0.7880076486
 H        -3.5886878855        2.2724213736       -1.8811076878
 H        -4.0934138201        2.5075652395       -0.2382277473
 H        -5.0881221966        5.9184379347       -2.6925153096
 H        -4.2730084010        4.5196616473       -3.3208034903
 H        -3.4404303223        5.6348701679       -2.1507227068
 H        -9.9505438680        7.1939852791       -4.6481096140
 H        -8.6385048505        6.1792164119       -4.0221666515
 H        -9.6002288530        7.4107141168       -2.9891362909
 H       -12.1248676920        6.5732030525       -2.4933557534
 H       -12.7102157373        5.1475053313       -3.2366212010
 H       -12.1492432834        6.4590236426       -4.1648725074
 H       -11.3375767903        3.0130263700       -9.6684203707
 H       -11.5424184449        1.4706028327      -10.5930634829
 H       -10.2977094192        1.6804282392       -9.2248083161
 H       -14.4872891642        1.4573309168       -8.2846408004
 H       -13.8333769646        0.6542015050       -9.6682752610
 H       -13.9269323232        2.3572400544       -9.5665635167
 Na      -10.2145948627        4.8535886837        1.2090536539
