117

 C       -11.6455378831       -0.9215981938       -8.9225145090
 C       -12.0094261089        0.0865030340       -7.8947613213
 O       -11.9311847215       -0.2282491502       -6.7371580993
 C       -12.3644971987        1.5314043424       -8.4234034154
 C       -12.2796196736        2.6700266281       -7.4027939561
 O       -13.1956036778        3.4386633378       -7.2145446010
 C       -10.9328747031        2.8716233183       -6.5284337475
 C       -11.1910112249        4.0303069342       -5.5851678173
 C       -10.1240275917        4.3027942549       -4.5985849426
 O        -9.0928011546        3.6443530143       -4.5651617085
 C       -10.3032355649        5.4374731923       -3.5319937125
 C        -9.9969899165        4.8531205273       -2.1177440658
 O       -10.7466940157        5.0959307646       -1.1812205388
 C        -8.8013974384        3.9692857148       -1.8278515967
 C        -7.4435288427        4.6894563881       -2.1131697137
 C        -6.3353314171        3.6743861671       -1.6739939697
 O        -6.5774144690        2.5007761259       -1.7212618935
 C        -4.7994621242        4.1385071622       -1.3262191092
 C        -4.7702388639        4.8907580040        0.0257195041
 O        -4.4578634581        6.0711340088        0.1704258130
 C        -5.3283982934        4.1733840876        1.2669201433
 C        -5.6799747359        5.3257153793        2.2553106689
 C        -7.1954230908        5.5553565749        2.3336355007
 O        -7.8937165185        5.0351949645        1.4878324199
 C        -7.6478507216        6.6333828376        3.3497117023
 C        -9.0117187650        6.1864983203        4.0986200311
 O        -9.8570816735        5.5693709329        3.5064183072
 C        -9.1887425333        6.4124387371        5.6770102106
 C        -9.7234770283        5.1086908767        6.2921621427
 C        -8.8360224701        3.8734499660        5.7617543681
 O        -7.9507143403        4.0369231277        4.9706039735
 C        -9.2349479543        2.4272296331        6.2478421982
 C       -10.4371683967        1.9319829784        5.3242751465
 O       -11.5301935777        2.4491647583        5.5079823323
 C       -10.3330743124        0.7862217650        4.2684258032
 C       -11.5767439530        0.7263815227        3.3280741596
 C       -11.5898719530        1.9543514822        2.3875379422
 O       -10.5222913246        2.5085341929        2.0918870393
 C       -12.9415129528        2.5719967528        1.9046861331
 C       -13.0612422203        3.9598149108        2.7525605458
 O       -12.2842260443        4.8787554808        2.5416517593
 C       -14.0595042813        4.0026456832        3.8310516312
 C       -12.8240850624        3.0520635271        0.3637298664
 C       -14.1155120776        1.6012610843        2.0689838853
 C        -8.0310841992        1.4668249415        6.1473983127
 C        -9.8580075121        2.3283153990        7.6432414306
 C        -6.4800326618        7.0186347687        4.2986104544
 C        -8.1130426634        7.7998950691        2.4515011249
 C        -4.0857075741        2.8019896289       -1.1870169111
 C        -4.1222891672        5.0374491880       -2.4602646330
 C        -9.4047021498        6.6286703893       -4.0295245210
 C       -11.8012614512        5.9055708795       -3.5004001511
 C       -11.3743732713        1.9816317318       -9.5150163346
 C       -13.7754904583        1.3976628847       -9.0202067512
 H       -12.4005700640       -1.2234549959       -9.6745600359
 H       -11.1691377675       -1.7916930476       -8.4724857154
 H       -10.8159032202       -0.6254769848       -9.6428665225
 H       -10.1110990525        3.2089841837       -7.1794337962
 H       -10.6936456260        1.9783575220       -5.9597389442
 H       -12.0571087569        3.7521649264       -4.9617682383
 H       -11.4105063386        4.8905082525       -6.2645865512
 H        -8.8398877608        3.1012067964       -2.4061208764
 H        -8.9166434427        3.7941485872       -0.6684642105
 H        -7.4295933540        5.6346957558       -1.6040016487
 H        -7.3430707154        4.7890753937       -3.2337224668
 H        -4.5604905174        3.4840579517        1.5298265750
 H        -6.2048013604        3.6177761196        1.0215250983
 H        -5.1562147310        6.2115607289        1.8885093207
 H        -5.2173935610        4.9715153941        3.2246414895
 H        -9.8385980914        7.2798262703        5.9310370650
 H        -8.2087158850        6.6292418317        6.0194084712
 H       -10.7477802385        4.9560177416        5.9396463383
 H        -9.6089521786        5.1069497282        7.3559555149
 H       -10.0936348415       -0.1802376525        4.7753899181
 H        -9.4772399908        1.0323271825        3.6389771595
 H       -12.4691498459        0.8815321576        3.8876480714
 H       -11.5806221754       -0.2556024984        2.7076516030
 H       -13.6771836257        4.6773624308        4.5257986327
 H       -14.2871663554        3.0989681522        4.3778526601
 H       -15.0738533390        4.3319008288        3.5215721538
 H       -13.6452540744        3.7934433116        0.1025998946
 H       -13.0371069603        2.2312879157       -0.3581993549
 H       -11.7973461914        3.4498731916        0.2220245284
 H       -15.0501206626        2.1206018310        1.7375528912
 H       -14.3320613046        1.2039661365        3.0306170179
 H       -13.9695739087        0.7628066634        1.3766543864
 H        -7.1960951986        1.7228809327        6.8588028456
 H        -7.7347448541        1.4452554038        5.1279190030
 H        -8.3440412793        0.4997526184        6.5619971097
 H       -10.0984522881        1.3156985463        7.9964728643
 H       -10.8282479390        2.8363940585        7.5761647204
 H        -9.2251678029        2.7772145391        8.4043736691
 H        -6.2407080128        6.1585386710        4.8534870524
 H        -6.8425262145        7.6194221807        5.0883035375
 H        -5.6391269818        7.4179930498        3.6936335785
 H        -8.7757842617        7.4089823355        1.7443941401
 H        -7.3184658243        8.2879690348        1.9324487696
 H        -8.7722138202        8.5320921998        2.8579495906
 H        -3.0075027318        2.9338624658       -1.0061264704
 H        -4.1934159661        2.3989160454       -2.2052924541
 H        -4.4752136625        1.9789923808       -0.5442595153
 H        -4.4891232058        6.0487290096       -2.3257278943
 H        -4.3583832944        4.7252195388       -3.4756149116
 H        -3.0353492208        5.1215545963       -2.2906478416
 H       -10.0317667802        7.0346655801       -4.8195009533
 H        -8.4344295476        6.2440362798       -4.3271664168
 H        -9.4110376362        7.4700241108       -3.4041799761
 H       -12.0678580949        6.7320662497       -2.8621608662
 H       -12.3874512574        5.1128158014       -3.1513217255
 H       -12.2841716782        6.2379768794       -4.4291123304
 H       -11.7169853338        2.9190116903       -9.9982725240
 H       -11.3067188220        1.2239146570      -10.2426293861
 H       -10.4091789620        2.1647114456       -9.0820672390
 H       -14.4569757489        1.4776007260       -8.1510410123
 H       -13.9076298243        0.3713904532       -9.3878889646
 H       -14.0683444700        2.2241061987       -9.7482248680
 Na      -10.2149475223        4.7123977228        1.1863108969
