117

 C       -11.6696221524       -1.0150242391       -8.8986802012
 C       -11.9155545317        0.1004132787       -7.8832745724
 O       -11.9864848482       -0.0586330605       -6.6408099985
 C       -12.3122777377        1.4859882892       -8.4531580829
 C       -12.2313519520        2.6215948034       -7.3847021374
 O       -13.1355660263        3.4264919907       -7.2610907244
 C       -11.0174145789        2.7550845901       -6.5050267306
 C       -11.1732764149        3.8940197776       -5.5046741231
 C       -10.0303966700        4.1409529373       -4.5767935383
 O        -8.9529570035        3.6296931435       -4.6156712882
 C       -10.3277900510        5.3838867340       -3.5077403765
 C       -10.0225427784        4.9205779265       -2.0569184429
 O       -10.8724460755        5.0230686428       -1.1525676912
 C        -8.7950874239        4.0407765369       -1.7370109293
 C        -7.3936165445        4.6931812769       -2.0994496103
 C        -6.2918516702        3.6797589378       -1.7724310428
 O        -6.6216935713        2.4783171797       -1.6535307676
 C        -4.8290156822        4.0672548980       -1.4131782221
 C        -4.8213640172        4.9023842886       -0.0333458191
 O        -4.4482504424        6.0762009106       -0.0469087789
 C        -5.3067508393        4.2033259358        1.2634193744
 C        -5.6821967128        5.2235425525        2.3247729105
 C        -7.1772091087        5.5307302218        2.3925592754
 O        -7.9797012730        5.0251944243        1.6299051212
 C        -7.6578321282        6.6275467544        3.3745612380
 C        -8.8832278272        6.1340757888        4.0711493172
 O        -9.8748465496        5.7213819207        3.4699069785
 C        -9.0894992071        6.2889591566        5.6045514705
 C        -9.6369502060        5.0219331744        6.2146735392
 C        -8.7897488469        3.7752722394        5.7888154617
 O        -7.8090268721        3.9777942276        5.0879852916
 C        -9.3727049921        2.4372975172        6.2156789526
 C       -10.5588000379        2.0694297613        5.2936109755
 O       -11.5831840950        2.6534747311        5.4003146086
 C       -10.3695618650        0.8907792613        4.3224448942
 C       -11.5746214329        0.7519821174        3.3641152850
 C       -11.6165364429        1.9734584744        2.4207229540
 O       -10.5184497629        2.3710182223        2.1055829712
 C       -12.9326205967        2.6472781235        1.8773561740
 C       -13.0151917120        3.9335118327        2.7475651391
 O       -12.2510245113        4.8716890735        2.4261819680
 C       -13.9910174922        3.9831221170        3.8474609299
 C       -12.8495501686        3.0975987345        0.3809274807
 C       -14.1045762035        1.7129131704        2.1042332825
 C        -8.1332704560        1.4294764673        6.2272947230
 C        -9.8715551820        2.5850815861        7.6998175590
 C        -6.5505848885        7.1618142935        4.2929053840
 C        -8.1220237850        7.7559447954        2.3488459167
 C        -4.0871076554        2.7597991642       -1.2877692327
 C        -4.1302650373        4.9686110487       -2.4509771564
 C        -9.4411676129        6.5654517211       -4.0261909327
 C       -11.7240959126        6.0373574658       -3.5683317817
 C       -11.4127783274        2.0170433917       -9.6800464299
 C       -13.7765200057        1.3805159851       -9.0000693592
 H       -12.6227131233       -1.2156688114       -9.2815288330
 H       -11.1121952169       -1.9300797264       -8.6859572083
 H       -11.1880967568       -0.7081332981       -9.8459918999
 H       -10.1442220063        2.9682665068       -7.1624595864
 H       -10.8630864344        1.8667123135       -5.9515782330
 H       -12.0477045408        3.6480912142       -4.8536379540
 H       -11.3309351217        4.8190779762       -6.0521302515
 H        -8.8588742837        3.2186297251       -2.4278169633
 H        -8.9113616541        3.7650999674       -0.6693668031
 H        -7.2389907379        5.6192791401       -1.5637741279
 H        -7.3752919023        4.8631645658       -3.1251174014
 H        -4.4710833537        3.5292426005        1.4291786772
 H        -6.1354466573        3.5990802695        1.0276981547
 H        -5.1731737862        6.1657658568        2.0157121019
 H        -5.2309399599        4.8592877485        3.2911419899
 H        -9.8663619419        7.0155128094        5.6847004051
 H        -8.2081410972        6.7146229765        6.1190831116
 H       -10.6216825487        4.8521755662        5.7951955995
 H        -9.6278988960        5.1298060453        7.2998216068
 H       -10.3539587105        0.0024209450        4.9532943992
 H        -9.3936922820        0.8976461499        3.7933993918
 H       -12.5102249155        0.6738791340        3.9654292365
 H       -11.3725362773       -0.1568379081        2.6907070342
 H       -13.5661570367        4.5249936678        4.7227515998
 H       -14.4275631438        3.1019129693        4.2543021380
 H       -14.9013330797        4.5606734044        3.5020372950
 H       -13.5266602303        3.8434379581        0.2713628330
 H       -13.2907652692        2.3173867851       -0.2233000062
 H       -11.8399639427        3.3861078455        0.0015067743
 H       -15.1141440169        2.1597458560        1.7973409972
 H       -14.1616754572        1.4452698865        3.1464875422
 H       -14.0025733225        0.7418866454        1.5734677080
 H        -7.4756814528        1.6499253742        7.0397283437
 H        -7.6536476891        1.5009611130        5.2511748014
 H        -8.4609304693        0.4009036680        6.4363724523
 H       -10.1522733249        1.5545522705        8.0512673625
 H       -10.7915665187        3.1531858408        7.7379726114
 H        -9.0884827011        2.9346531408        8.4379660090
 H        -6.3133951672        6.3565763879        5.0238135332
 H        -6.8539946738        7.9210355541        4.9517536385
 H        -5.7984605294        7.4161164006        3.6321119710
 H        -8.9323320798        7.4399704233        1.6585221846
 H        -7.2829484585        8.1297334671        1.7912165516
 H        -8.6309916548        8.6122645551        2.7936670048
 H        -3.0483867815        2.9201922017       -0.9498511546
 H        -4.1031690649        2.1811472053       -2.1971921056
 H        -4.6091004129        2.0846162868       -0.5873840030
 H        -4.3167211160        6.0683724157       -2.4066902671
 H        -4.3000774145        4.6239509686       -3.3950740568
 H        -3.0504076519        4.8339622285       -2.2355169917
 H        -9.9740718043        7.0072530039       -4.8507139856
 H        -8.4129090305        6.2213838472       -4.1622158278
 H        -9.5329451284        7.3955213623       -3.3225153266
 H       -11.7778300453        6.9441065883       -2.9937928966
 H       -12.5655298605        5.4183790130       -3.1644671289
 H       -12.0453259246        6.4048591499       -4.5110042856
 H       -11.7407540920        2.9806569413       -9.9656242473
 H       -11.5261961899        1.3324548646      -10.5240433917
 H       -10.3657781123        2.0836634715       -9.4267461943
 H       -14.5588136846        1.2461654382       -8.1986687915
 H       -13.8114009951        0.4295150088       -9.6602792926
 H       -14.0048630595        2.3127463440       -9.5619946389
 Na      -10.2748717227        4.6801580690        1.2803419436
