117

 C       -11.7578707376       -1.1049478733       -8.8381185825
 C       -12.0264223437       -0.0187559830       -7.8170055061
 O       -11.8866016290       -0.2268777619       -6.6005833543
 C       -12.3401127505        1.4357220122       -8.4029107600
 C       -12.1711948324        2.6566534384       -7.4294154055
 O       -13.0141777720        3.5279227606       -7.4517033237
 C       -11.0225540576        2.7783491469       -6.4593109084
 C       -11.3504119507        3.7112190246       -5.2748187519
 C       -10.0673837917        4.1603408719       -4.4401824010
 O        -8.9996716031        3.6444614883       -4.6061686555
 C       -10.2416270905        5.3757871486       -3.3868692353
 C        -9.8248228298        5.0082837039       -1.8874479580
 O       -10.5967912291        5.4075060994       -1.0039297068
 C        -8.7573400030        4.0217594192       -1.5230809178
 C        -7.3366526328        4.3683215785       -2.0827854777
 C        -6.2671048416        3.3572440095       -1.6159793452
 O        -6.4808570249        2.1888808702       -1.3690057398
 C        -4.8128211988        3.9353492746       -1.4803230102
 C        -4.9218064053        4.8472565297       -0.1964893204
 O        -4.8828780093        6.0286970644       -0.2470266064
 C        -5.2012718790        4.1409035782        1.2052841259
 C        -5.6679835645        5.1936346793        2.2125298961
 C        -7.1169806412        5.4562345005        2.1504406453
 O        -7.9363119512        4.6920527570        1.6558712277
 C        -7.6154052126        6.7669327119        2.9909960193
 C        -8.7712329841        6.3517291874        3.8375854297
 O        -9.8206656803        6.0781953481        3.2488234471
 C        -8.6327947812        6.2226718008        5.3970924010
 C        -9.4444357895        5.1157261053        6.0543557980
 C        -8.7728945213        3.7742710301        6.0715444641
 O        -7.6388625316        3.7315923682        5.5749551049
 C        -9.5746914334        2.4339720575        6.5089121261
 C       -10.6484367451        2.2197130369        5.3307405202
 O       -11.3625018174        3.1365351122        5.0349145787
 C       -10.5264323801        0.9505342266        4.4201380025
 C       -11.7210182793        0.9145568617        3.5016474472
 C       -11.6710800114        2.0260425791        2.4193040422
 O       -10.6282773949        2.4633235789        2.0281843637
 C       -13.0198859047        2.6345456096        1.9361367854
 C       -13.0210700075        4.1100677905        2.6339847915
 O       -12.4926343616        5.0634312433        2.1149553804
 C       -13.8734671043        4.2529402532        3.8743678853
 C       -13.0403631130        2.8674060780        0.4452282548
 C       -14.3249536293        1.7929782904        2.2987947904
 C        -8.5083709255        1.3162686156        6.6719986506
 C       -10.4259001761        2.6065648344        7.7887133647
 C        -6.3662589787        7.4392523551        3.6757113503
 C        -8.0923044992        7.6401119404        1.8308022603
 C        -3.7893110937        2.7049613214       -1.1519400941
 C        -4.3371923458        4.6106419402       -2.7472948575
 C        -9.3516430069        6.6175715994       -3.8777430745
 C       -11.6518898620        5.9808761458       -3.2605579619
 C       -11.3011600971        1.7347903266       -9.5493625063
 C       -13.7444262456        1.4053878171       -8.9879698076
 H       -12.5970192938       -1.8371738109       -8.7807536155
 H       -10.8267527189       -1.7138577941       -8.5387204835
 H       -11.7655149555       -0.9416642644       -9.9238452177
 H       -10.1239641460        3.2690920338       -6.8873302889
 H       -10.6418450022        1.8465519022       -6.1244510392
 H       -12.0421466528        3.2052074219       -4.5226782680
 H       -11.9101416211        4.5756906418       -5.6875189792
 H        -9.0706619340        3.0997282840       -2.0401805453
 H        -8.7968473913        4.0197550102       -0.4582876684
 H        -7.0872228670        5.4263743783       -1.8296726695
 H        -7.3143735551        4.3028571493       -3.1562268714
 H        -4.2839212229        3.6948852184        1.5543452069
 H        -5.8449046126        3.3613028369        0.9785623129
 H        -4.9973240154        6.0589620474        2.0526311746
 H        -5.3112067873        4.8386247389        3.2154527545
 H        -8.9290880172        7.1370800991        5.8732113426
 H        -7.5299346380        6.1874652576        5.6329132923
 H       -10.4008685608        4.9700902917        5.5769888916
 H        -9.5761066173        5.4020233883        7.1063863928
 H       -10.5935603431        0.0433516302        5.0050860173
 H        -9.5160915242        0.9250307093        3.9665994681
 H       -12.6149678816        1.0793311723        4.1861362949
 H       -11.6913983368       -0.0451136046        2.9452016107
 H       -13.8031447806        5.2485584229        4.3609876048
 H       -13.7750503204        3.4703509933        4.5867004743
 H       -14.8921149760        4.2593746017        3.5344881648
 H       -13.9589081547        3.4377789802        0.2172624282
 H       -13.0147621861        1.8386933147       -0.0577826868
 H       -12.1785724769        3.4890335430        0.1363616408
 H       -15.1938075219        2.0884819571        1.7530704831
 H       -14.4199266393        1.8467465435        3.3851480734
 H       -14.2582877255        0.7566149432        2.0742736924
 H        -7.7914045489        1.8042959661        7.2836262937
 H        -7.9907034411        1.0913582936        5.6963109960
 H        -8.9158080912        0.3552779789        7.0126425465
 H       -10.8266189966        1.6444851637        8.0407167000
 H       -11.1155114101        3.3895152526        7.7726960326
 H        -9.7343862283        2.7823666126        8.6070772249
 H        -5.7912169443        6.6542362604        4.2938369213
 H        -6.6160201750        8.3430768884        4.2494613008
 H        -5.8123699368        7.8143287523        2.8654293223
 H        -8.7749398109        7.1452722357        1.1375792957
 H        -7.2663055326        7.8901649606        1.2436483285
 H        -8.5427032977        8.5602954694        2.0889564454
 H        -2.7542527088        3.0499325250       -0.9488394179
 H        -3.7102884703        1.9506821334       -1.9479701519
 H        -4.2902845577        2.1889910363       -0.3152191267
 H        -5.0211016540        5.3991999001       -3.0931455719
 H        -4.1616769138        3.8268697873       -3.4624817864
 H        -3.3327531399        5.0032763071       -2.5703179046
 H       -10.0178219009        7.1208980322       -4.5498240069
 H        -8.5335431043        6.1696294957       -4.4325889270
 H        -8.9557940354        7.1971346361       -3.0291422300
 H       -11.6000500728        6.7838693561       -2.5502178184
 H       -12.4627202436        5.2973400029       -2.8964891681
 H       -12.0547880375        6.4213396874       -4.1227409708
 H       -11.5382664652        2.6543301223      -10.0063621419
 H       -11.3575651431        0.9350157136      -10.3264720732
 H       -10.2575814258        1.7714368777       -9.2217792610
 H       -14.3945820663        0.6986273865       -8.4451905321
 H       -13.5899627435        1.0770620242      -10.0393931911
 H       -14.1678746488        2.3818501625       -9.0204563678
 Na      -10.2732450492        4.8685434912        1.2166986092
