117

 C       -11.8598117721       -1.1716461880       -8.7979896990
 C       -11.9256386170       -0.0323923536       -7.7562058981
 O       -11.9258725173       -0.2619367756       -6.5964052998
 C       -12.2677523586        1.4339865515       -8.4076703384
 C       -12.2317935082        2.6826380435       -7.3464738150
 O       -13.0105164463        3.5975275100       -7.4776133791
 C       -10.9676086229        2.8204473452       -6.4440658351
 C       -11.3076274701        3.7417956606       -5.2295114103
 C       -10.1481179426        4.2376990358       -4.3545544327
 O        -9.0428220518        3.7022937323       -4.5333017007
 C       -10.3055006086        5.4064948270       -3.3719890471
 C        -9.8770331033        4.9255609165       -1.9055119547
 O       -10.4233034133        5.5255087665       -0.9685966656
 C        -8.7992725277        3.8215151236       -1.6127451168
 C        -7.3472685574        4.1532648929       -2.1955931137
 C        -6.2817724628        3.2170850080       -1.6507747335
 O        -6.5054257708        2.1179912535       -1.2755285734
 C        -4.8091641399        3.9053581810       -1.4507938423
 C        -4.9490255865        4.7955655927       -0.2407314217
 O        -4.9844345464        5.9976289346       -0.3768473032
 C        -5.1059154476        4.1224180140        1.1425323611
 C        -5.6041343000        5.1491558619        2.1477904715
 C        -7.0516440740        5.3552106645        2.1933029593
 O        -7.8619957045        4.7094396029        1.5494810662
 C        -7.5460059163        6.7316054904        2.7680868575
 C        -8.7585355552        6.3017203235        3.7714435093
 O        -9.8512641210        6.0648673599        3.3361096895
 C        -8.5221118015        6.1924576274        5.3364405282
 C        -9.4409127993        5.2400876117        6.0223997620
 C        -8.7760168672        3.8097914875        6.0459671638
 O        -7.6222473347        3.5659318574        5.7624787638
 C        -9.5482069238        2.5331678764        6.4961323231
 C       -10.4739017610        2.2456359809        5.2403013649
 O       -11.3968754402        3.0557911277        5.0237604138
 C       -10.4965458873        0.9765252492        4.3977092074
 C       -11.7578033252        0.9449587687        3.5140753966
 C       -11.6781801936        2.0935020178        2.4597036219
 O       -10.6298791897        2.5949355114        2.1156986223
 C       -13.0589517180        2.7150350412        1.9959265723
 C       -13.1705235342        4.1329750981        2.6028026668
 O       -12.4844443520        4.9483490286        2.0446767992
 C       -13.9479376664        4.4018285759        3.8319960935
 C       -13.1262069521        2.8415109708        0.3516569298
 C       -14.3334195676        1.8881488978        2.3340100805
 C        -8.5855735663        1.3989220799        6.7555803270
 C       -10.5066863775        2.7345323602        7.6635223676
 C        -6.4289588124        7.5188328687        3.5562629350
 C        -8.0771800367        7.6148064060        1.6463269943
 C        -3.8322966079        2.6938806573       -1.0996068325
 C        -4.2393539562        4.7315709624       -2.5791378541
 C        -9.2679027517        6.5006551047       -3.8560634624
 C       -11.7282864892        5.9303541291       -3.2065555944
 C       -11.1574333527        1.8281832699       -9.3908327848
 C       -13.7167233780        1.3103179244       -8.9617582273
 H       -12.6515114256       -1.9682376683       -8.6142203617
 H       -10.9206913141       -1.6966092024       -8.7932631841
 H       -12.0910330892       -0.8930963577       -9.8008076789
 H       -10.0928691385        3.1877393636       -6.9197940203
 H       -10.6350893661        1.8160560175       -6.0986922108
 H       -11.9483459036        3.1178501956       -4.5517552383
 H       -11.9688249426        4.5296610762       -5.5958643142
 H        -9.1231503535        2.8908539346       -2.1588944917
 H        -8.8168438546        3.7752762944       -0.5956146984
 H        -7.1050953690        5.1601275778       -1.9545260830
 H        -7.3385978098        4.1052711254       -3.2413718098
 H        -4.2212467844        3.5959375388        1.4136716573
 H        -5.8370295766        3.3695549127        0.8596374950
 H        -5.1689607952        6.1356947952        1.7784275303
 H        -5.0792852448        5.0503969775        3.0869989802
 H        -8.4977010860        7.1399462630        5.8587093434
 H        -7.4872064067        5.8590648307        5.4345174208
 H       -10.4221023368        5.1893044267        5.5734816868
 H        -9.5278187689        5.5376759621        7.0751529193
 H       -10.5199224448        0.1351753589        5.0883134745
 H        -9.5972508903        0.8025364208        3.7801191931
 H       -12.7247159370        1.1202828140        4.1354318487
 H       -11.6883865282        0.0120291795        2.9627175609
 H       -13.9779137560        5.5004455122        3.9530132062
 H       -13.4830082612        3.9073396281        4.7451582980
 H       -14.9808892751        4.1617461157        3.8085993134
 H       -14.1571278151        3.2291261581        0.1067220569
 H       -12.9013383014        1.9188630172       -0.0910565572
 H       -12.4852380192        3.5843940316        0.0344669575
 H       -15.1665030389        2.2653962781        1.8007988355
 H       -14.5310642529        1.7654614402        3.4495692340
 H       -14.2440506465        0.8768446860        1.9274739023
 H        -7.9297864593        1.8498034512        7.4647584544
 H        -7.9793984417        1.1249646283        5.8893389687
 H        -9.1165191623        0.5198109604        7.0348308479
 H       -11.1389678668        1.8592590811        7.7513500047
 H       -11.0399888437        3.7152782793        7.6104217324
 H        -9.9365589343        2.7527570546        8.5823843351
 H        -6.1383311192        6.8586006211        4.3067800814
 H        -6.8388268080        8.4653231556        3.9199487521
 H        -5.5594226293        7.8184087959        2.9571687037
 H        -8.8368769841        7.1068607508        1.0810072637
 H        -7.3715246193        7.9274315628        0.8806671715
 H        -8.4960713740        8.5172867491        2.0548903955
 H        -2.8059342139        3.0724688034       -0.9968287210
 H        -3.7780017531        1.9210740819       -1.8976593952
 H        -4.2213381773        2.2066844998       -0.2065072998
 H        -4.8494354126        5.5895555537       -2.6126689800
 H        -4.2764274489        4.1181809666       -3.5455137768
 H        -3.2342767570        4.9702146975       -2.4435313459
 H        -9.6883597776        6.9154724361       -4.7762449525
 H        -8.4366037626        5.8850010292       -4.1817305760
 H        -8.9541264396        7.1414539840       -3.0252755967
 H       -11.8395900287        6.8972670382       -2.6989738507
 H       -12.3726525119        5.2330051633       -2.6829713814
 H       -12.2281938519        6.0335424417       -4.1702275964
 H       -11.3552356083        2.7889656709       -9.8248568472
 H       -11.0421708258        1.1067183170      -10.1872959549
 H       -10.1951723763        1.8716402994       -8.9056758013
 H       -14.2992153967        0.9089176748       -8.0658761719
 H       -13.8496353634        0.6998003698       -9.8736023152
 H       -14.0710734436        2.3705902552       -9.2064624445
 Na      -10.2834954063        4.8882379762        1.3188582297
