117

 C       -11.9461038631       -1.1676228914       -8.7095244523
 C       -11.9817301119        0.0401882878       -7.7668285311
 O       -11.9001355339       -0.1840931936       -6.5753537934
 C       -12.1669962558        1.4545333176       -8.2809731153
 C       -12.1663032997        2.6448251184       -7.2789037680
 O       -12.9898798831        3.5285833928       -7.4524058231
 C       -11.0428579982        2.8224898410       -6.3254573557
 C       -11.4347677611        3.7397803852       -5.1795245104
 C       -10.1994676777        4.1721374545       -4.3911538058
 O        -9.0628378416        3.7248511571       -4.5085999203
 C       -10.3247179813        5.3162296492       -3.3525305970
 C        -9.7865802036        4.9017327446       -1.9012871308
 O       -10.1594518142        5.4855589926       -0.9061949370
 C        -8.7910942521        3.7128427705       -1.7824076687
 C        -7.4125244472        4.0730626595       -2.2876795436
 C        -6.2700015408        3.1821298169       -1.6311426985
 O        -6.5168935116        2.0497691452       -1.1998153047
 C        -4.8247612412        3.7907816735       -1.4578292637
 C        -5.0293993492        4.7185826662       -0.2547233423
 O        -5.1010819481        5.9561403648       -0.4035431624
 C        -5.0646284396        4.1078839994        1.1469303694
 C        -5.4679295169        5.1741123358        2.1355057832
 C        -7.0151602842        5.4514867313        2.0278879765
 O        -7.7441348725        4.6330984954        1.5041563343
 C        -7.6547486028        6.7329470023        2.7682748967
 C        -8.7214683734        6.2919810529        3.7658567714
 O        -9.8547204391        6.0301580311        3.4070944964
 C        -8.3364044221        6.1744624681        5.1862063987
 C        -9.2930502103        5.1981104925        5.9704358621
 C        -8.6914556145        3.8021753912        6.0704855257
 O        -7.5336163934        3.6896550380        5.8542580186
 C        -9.6088270435        2.5148132867        6.4512610821
 C       -10.5867595583        2.2446882624        5.2163276888
 O       -11.4624860982        3.0923407313        4.9622754878
 C       -10.4312437731        0.9730387964        4.3937048319
 C       -11.6871291986        0.9541229665        3.4302911722
 C       -11.8087041491        2.1958881271        2.5359972185
 O       -10.7359373084        2.7098882512        2.1674441564
 C       -13.1847676893        2.7088559054        1.9530436218
 C       -13.2388900556        4.2324078419        2.5198777293
 O       -12.4616868321        5.0740562004        2.0535049394
 C       -14.0134811363        4.5577818848        3.7251922238
 C       -13.0828694166        2.7702310805        0.3751864986
 C       -14.3385044532        1.8227460941        2.4340581576
 C        -8.6903789784        1.3668967407        6.8201413898
 C       -10.6254651492        2.9195984697        7.6064533597
 C        -6.5740084542        7.5869842349        3.4880710450
 C        -8.1121077558        7.5822447553        1.5534391128
 C        -3.8357804430        2.6100422724       -1.1377867421
 C        -4.2351972404        4.7130319139       -2.6115743696
 C        -9.2788582003        6.4070126115       -3.7571017236
 C       -11.7484554846        5.9380185185       -3.2424131860
 C       -11.1059027935        1.8375147739       -9.3258188799
 C       -13.5761862946        1.3163410100       -8.9370404418
 H       -12.4731030103       -2.0595119796       -8.4500630353
 H       -10.9456171343       -1.4730425156       -8.7533753294
 H       -12.2643776984       -0.9218082688       -9.7090011498
 H       -10.1891837511        3.3003354370       -6.8045280231
 H       -10.5693121331        1.8576847911       -6.0372092141
 H       -12.2121244401        3.3495826517       -4.5537956588
 H       -11.8862238252        4.6350405957       -5.6483213976
 H        -9.1420116720        2.9234620050       -2.3866457592
 H        -8.8327815445        3.5052313799       -0.6514283303
 H        -7.2352806715        5.0829511951       -2.0499617932
 H        -7.3696899171        4.0231186078       -3.3729938828
 H        -4.0556988744        3.6823433154        1.2318394321
 H        -5.7729978836        3.2124340400        1.1331722080
 H        -4.7072706711        5.9589627564        2.1977281493
 H        -5.3888897735        4.7081372125        3.1129755305
 H        -8.4537411330        7.1919958354        5.6302570582
 H        -7.2953802990        6.0031344125        5.2494041765
 H       -10.2030375762        5.0838186369        5.3366406796
 H        -9.6033928674        5.6176907081        6.9269259015
 H       -10.2680635535        0.0640788394        5.0102006625
 H        -9.5182993469        1.0732650604        3.8076096788
 H       -12.5586176592        1.0176003995        4.0150478934
 H       -11.6447045563        0.0986031089        2.7419007482
 H       -14.2984747492        5.6014696065        3.6967983368
 H       -13.3577723473        4.3582241195        4.6040871903
 H       -15.0108277340        4.0713507752        3.9178697522
 H       -13.9596233896        3.1171725664       -0.0326980345
 H       -12.7039480800        1.8990145256       -0.0292630391
 H       -12.3722059254        3.5749929637        0.2569931280
 H       -15.3388576875        2.2774482958        2.1851875408
 H       -14.2612905429        1.6272522208        3.4870382940
 H       -14.3577890698        0.8306958714        1.8988304355
 H        -8.1233823743        1.7829169423        7.6591432934
 H        -8.0014003449        1.1067141571        6.0907057363
 H        -9.2992918686        0.5144544762        7.0041957499
 H       -11.3866946969        2.1261636356        7.7672374383
 H       -11.0417687747        3.9446718317        7.4158692435
 H       -10.0607618598        3.0271180248        8.5521860962
 H        -6.0913826951        7.0804223333        4.2769845978
 H        -7.0543522075        8.5109475246        3.7070896636
 H        -5.7488524928        7.8827296850        2.8088381764
 H        -8.9007653656        7.0427107670        1.0415602061
 H        -7.3869598976        7.7112215437        0.7140989158
 H        -8.4539820939        8.6087922280        1.8235150456
 H        -2.8925765307        3.1111273220       -1.0083232271
 H        -3.6674091499        2.0390670107       -2.0448172092
 H        -4.1105021519        1.9539064881       -0.3220893150
 H        -4.8627049566        5.5678472254       -2.4359926858
 H        -4.3053758547        4.3709983334       -3.6201491800
 H        -3.1930479324        4.9789606462       -2.4336179084
 H        -9.5140315207        6.6170858733       -4.8217804709
 H        -8.2609807411        6.0008872247       -3.7733594089
 H        -9.3921843644        7.1487239321       -2.9952379431
 H       -11.9234159914        6.9336882646       -2.7951032415
 H       -12.4458006407        5.2813840527       -2.7810370600
 H       -12.1378054317        5.9711227858       -4.3032594009
 H       -11.3795020922        2.8468258672       -9.7100971156
 H       -11.0455163398        1.1712682972      -10.1328378975
 H       -10.1128032355        1.9066906862       -8.9208296379
 H       -14.3153958933        1.1951767132       -8.1280273367
 H       -13.6368332715        0.4848504248       -9.6626739317
 H       -13.7552879034        2.2716574625       -9.5315238329
 Na      -10.2630556477        4.8729301350        1.4034996430
