117

 C       -11.9048004265       -1.1626329122       -8.4459794867
 C       -12.0403562763        0.0186794077       -7.5774040787
 O       -11.9637138026       -0.0855951122       -6.3304070644
 C       -12.1598539956        1.4225604355       -8.2552678875
 C       -12.3386933472        2.5693236389       -7.1826845714
 O       -13.2830108391        3.3277593252       -7.2203678514
 C       -11.3080740719        2.7205497122       -6.0448530765
 C       -11.4313837905        3.9321506121       -5.1109864285
 C       -10.1699591754        4.2329367292       -4.4199482649
 O        -9.0483530867        3.8739142129       -4.6866074687
 C       -10.2507415464        5.2482821432       -3.1786934239
 C        -9.6755603839        4.6539362381       -1.8660855681
 O        -9.9455917576        5.2063303675       -0.8475868859
 C        -8.8128327168        3.3931702002       -1.8906636484
 C        -7.3445329268        3.7283374093       -2.1782874537
 C        -6.2835243471        2.8569901888       -1.5291457047
 O        -6.5432387259        1.8164021446       -0.9324616921
 C        -4.8475836026        3.5111532302       -1.3794621561
 C        -5.1527874198        4.5770159423       -0.2627351611
 O        -5.7207617403        5.6595802019       -0.5324052887
 C        -4.8283779963        4.1491759733        1.1760511113
 C        -5.3446794141        5.1428332497        2.2062919886
 C        -6.9565225525        5.3636446506        1.8567243599
 O        -7.6857566317        4.5529966260        1.3114742219
 C        -7.5314930527        6.7821087362        2.3839179031
 C        -8.4960234753        6.2500674353        3.5592395817
 O        -9.6037524893        5.8337236570        3.3034798760
 C        -7.9952796055        6.0537853941        5.0292757992
 C        -8.9617965638        5.2780188252        5.9286464494
 C        -8.6681121264        3.7559514965        6.1604794231
 O        -7.5403187829        3.3311151796        5.9652559503
 C        -9.9147126861        2.8146115411        6.5543550644
 C       -10.6620837484        2.5352215562        5.2214159908
 O       -11.5696711243        3.2869684660        4.8924520407
 C       -10.3939029373        1.2846497537        4.4122735383
 C       -11.5113234210        1.0718403155        3.3542194011
 C       -11.6817530866        2.4267892558        2.5798699452
 O       -10.6974684121        2.9813267909        2.0968885757
 C       -13.0962034761        2.9077314651        2.1162068768
 C       -13.2247000820        4.4797277070        2.3315378887
 O       -12.4170382727        5.2493706672        1.8110591033
 C       -14.4387117141        5.0127593840        3.0534329044
 C       -13.2197010364        2.7636144933        0.5581330231
 C       -14.0696000673        2.0209135880        2.7909712012
 C        -9.2682439621        1.5499423806        7.1420690842
 C       -10.7678665867        3.4950646561        7.6518552279
 C        -6.5658377160        7.7836952515        2.9171852300
 C        -8.3895892986        7.5042820858        1.2845094218
 C        -3.7977324293        2.5523903318       -1.0069036009
 C        -4.4086440748        4.4032039555       -2.6569086816
 C        -9.3048630411        6.4509953295       -3.6658351081
 C       -11.6555270764        5.8031002306       -2.9525906205
 C       -10.8027950176        1.6747220393       -8.9950835204
 C       -13.3219152137        1.5055041651       -9.2753100286
 H       -11.9826107144       -2.0607526659       -7.9055645807
 H       -10.8515774608       -1.2717505599       -8.7298284892
 H       -12.5105225779       -1.0967387372       -9.3874908932
 H       -10.3447215781        2.6460325927       -6.5255451559
 H       -11.3059898130        1.7422634583       -5.5345642683
 H       -12.2665130039        3.8383677940       -4.4540223165
 H       -11.8231119386        4.7809183493       -5.7189309873
 H        -9.1875336559        2.7465852852       -2.5915349918
 H        -8.9293958313        2.8314758300       -0.8811758404
 H        -7.1181650821        4.6904348598       -1.8310191110
 H        -7.2029509620        3.7594155826       -3.2362261811
 H        -3.7497624544        4.0759434584        1.1508252144
 H        -5.2103374878        3.1234436880        1.3819173135
 H        -4.7302921804        6.0324886025        2.2836188971
 H        -5.1495228009        4.7357942578        3.2019256069
 H        -7.7946235892        7.0853187001        5.3872112254
 H        -7.0368375551        5.6105387979        4.9851017726
 H        -9.9461207583        5.2821899942        5.4301659229
 H        -9.1459708845        5.7557094645        6.8790789076
 H       -10.2342402539        0.3905123675        5.0585706507
 H        -9.4054499959        1.4333956795        3.9698534789
 H       -12.3813732328        0.7993047309        3.8668196540
 H       -11.3361104773        0.2745962935        2.5359024400
 H       -14.9264122473        5.7905858122        2.4718267617
 H       -14.1906598088        5.4228852621        4.0232782343
 H       -15.3170852916        4.2941357318        3.2160772140
 H       -14.1282576677        3.1540257056        0.3218493071
 H       -13.1518501766        1.7112530371        0.3056237609
 H       -12.4128382757        3.3446404990        0.0510109107
 H       -15.1408363610        2.3002381435        2.6091276791
 H       -14.0690675156        2.1435138497        3.8205415021
 H       -13.7974352361        0.9946765896        2.4949866247
 H        -8.6215187590        1.8106397251        8.0278972025
 H        -8.6254755789        1.1524549389        6.3846756268
 H       -10.0534638883        0.8078435667        7.4418895737
 H       -11.4843034336        2.8224681396        8.1021621969
 H       -11.4001453431        4.1731979227        7.1127005481
 H       -10.1420185099        4.0810993774        8.3076133203
 H        -5.9806124980        7.4525816234        3.8020715872
 H        -7.0969715409        8.6806542435        3.1122528864
 H        -5.7676019577        7.9465431862        2.2149688424
 H        -9.0794421315        6.8716557391        0.7356330309
 H        -7.7740724636        7.8997104596        0.5106285867
 H        -8.9102521625        8.3370336860        1.7024197949
 H        -2.9020648843        3.1259749741       -0.7009049406
 H        -3.6275880133        2.0384736385       -1.9629948737
 H        -4.1053653679        1.8870407435       -0.1601508352
 H        -4.9204309293        5.3834532066       -2.6175341820
 H        -4.7495969054        3.9477206233       -3.5012734433
 H        -3.3063968358        4.5776768488       -2.6689420067
 H        -9.8587885852        7.1675074361       -4.2861707278
 H        -8.4767886731        6.1139340324       -4.2871226050
 H        -9.0953496780        6.7814684663       -2.6834106799
 H       -11.6058468714        6.4011812460       -2.0289958561
 H       -12.3690786957        5.0082123540       -2.7694732120
 H       -11.9712584190        6.5109182338       -3.7481919208
 H       -10.6449375089        2.6846411304       -9.4440630730
 H       -10.6355935897        1.0071955383       -9.7992019634
 H       -10.0040257673        1.5261520038       -8.2812835318
 H       -14.2947399371        1.2094473715       -8.8276323857
 H       -13.1406457430        0.7807116498      -10.1471437170
 H       -13.3742976485        2.5606819932       -9.6204493433
 Na      -10.1179475396        4.7975917527        1.1773780314
