117

 C       -11.9797507956       -1.1855140899       -8.5178572258
 C       -12.0694664979       -0.0166289410       -7.4920097505
 O       -12.1357376077       -0.2253108757       -6.3145007281
 C       -12.1000281098        1.4344025135       -8.1529493875
 C       -12.4006468174        2.5481723558       -7.1581792248
 O       -13.3575074722        3.2867015710       -7.2593173976
 C       -11.1938470710        2.6896313003       -6.1185147374
 C       -11.4550042613        3.9343911856       -5.2660832769
 C       -10.2084789590        4.2699908763       -4.4728970853
 O        -9.1201658522        3.8821287308       -4.8287547278
 C       -10.2444379028        5.3328139222       -3.1661865851
 C        -9.7645228913        4.6025940238       -1.9005549689
 O        -9.9512876352        5.2505897669       -0.8611287774
 C        -8.8754881283        3.2617667764       -1.8449034657
 C        -7.4575619456        3.6196211820       -2.2590278709
 C        -6.3175426727        2.8264812418       -1.4814327316
 O        -6.4485113132        1.7942274103       -0.9277425924
 C        -4.8576472402        3.5043952174       -1.3659177016
 C        -5.1743255469        4.5767255583       -0.2982023832
 O        -5.7123271825        5.6093342844       -0.5179142044
 C        -4.8717047493        4.1623816749        1.2032449614
 C        -5.4875695067        5.2257555491        2.1028103983
 C        -6.9266189049        5.4306291130        1.8450598049
 O        -7.5775401099        4.5569986636        1.3140743064
 C        -7.5383021758        6.7586602979        2.4444843566
 C        -8.4755222538        6.1774390413        3.5302228678
 O        -9.5990861895        5.7737565492        3.2264055004
 C        -7.8729801882        5.9427181904        4.9629384881
 C        -8.9594135742        5.3683167748        5.8814037394
 C        -8.6946328779        3.8740454510        6.1477681729
 O        -7.6209851259        3.3105927505        5.8435456817
 C        -9.8449836281        2.9393953991        6.6220464372
 C       -10.7028960273        2.5876404024        5.2995557027
 O       -11.5474666055        3.3581722970        4.9885695313
 C       -10.4082142958        1.3681774983        4.4433745735
 C       -11.4613900128        1.1755904503        3.3490891869
 C       -11.6172309879        2.3862987534        2.4868303157
 O       -10.5921289721        2.8370958566        2.0749475389
 C       -13.0689486242        2.9350205975        2.1401855013
 C       -13.1541294228        4.5347917397        2.2792140454
 O       -12.3141661294        5.2530670025        1.8111640642
 C       -14.4336761672        5.0912285996        2.8335052246
 C       -13.2475875097        2.7326871350        0.5421925394
 C       -14.2101166098        2.1006223639        2.8585590187
 C        -9.2702002757        1.6275578178        7.3843365136
 C       -10.8395962668        3.5462652309        7.5678336705
 C        -6.4778840166        7.7179976091        2.8968348640
 C        -8.3306568343        7.3725993895        1.2850645247
 C        -3.7397935054        2.4693353284       -0.9194095875
 C        -4.3807520307        4.3454520793       -2.6145743733
 C        -9.2879473152        6.5004803826       -3.5160333094
 C       -11.6863101919        5.8940367263       -3.0321319910
 C       -10.7446010788        1.8088649758       -8.8148869207
 C       -13.1507357264        1.3943914006       -9.1998762049
 H       -12.0335193148       -2.1336980984       -8.0682845472
 H       -11.0327372110       -1.2845865033       -9.0433006203
 H       -12.6958847538       -1.0150988194       -9.2341767781
 H       -10.2461048474        2.7483087641       -6.7119634127
 H       -11.0622894860        1.7496670383       -5.6191828923
 H       -12.3983011863        3.8770196980       -4.7612714473
 H       -11.7265207055        4.7275268411       -5.9679785910
 H        -9.2653433265        2.4001048527       -2.4457136392
 H        -8.8631768018        2.8282160269       -0.8171527747
 H        -7.2492876594        4.6555659461       -2.0965915027
 H        -7.3959154080        3.4602554459       -3.3247688078
 H        -3.7416644651        4.2245052101        1.4001231422
 H        -5.1845508499        3.1173971993        1.3918631776
 H        -4.9006130003        6.0883741367        2.0529236160
 H        -5.3480295473        4.9918366045        3.1640840223
 H        -7.4829089566        6.9016273696        5.2670677008
 H        -7.0131162626        5.2647354905        4.9269615567
 H       -10.0016318486        5.5305864700        5.5771358483
 H        -8.8679137449        5.8089983967        6.8834086213
 H       -10.4206121312        0.4307018437        5.0261459477
 H        -9.3743901579        1.4053887727        4.0872132942
 H       -12.3672219865        0.8555075337        3.8319735585
 H       -11.2119937747        0.3639547630        2.7066071032
 H       -14.7448691406        6.0623116535        2.2940803563
 H       -14.1195683998        5.4256252177        3.8386593892
 H       -15.3518211940        4.5371079864        2.9425368540
 H       -14.2876217756        3.0015440231        0.3498615113
 H       -13.2057259385        1.6912999021        0.3965364223
 H       -12.5844430764        3.2201636275       -0.0420838123
 H       -15.1999701028        2.5514223529        2.7811498207
 H       -14.1731258274        2.1730060374        3.9538877378
 H       -14.1431346190        1.0653779009        2.5263335797
 H        -8.8458336727        1.8032519185        8.3407135655
 H        -8.5488814057        1.1533353288        6.7035689073
 H       -10.1301568655        0.9818446336        7.5419117322
 H       -11.7149761695        2.8834824907        7.7269322095
 H       -11.3058320287        4.4053961974        7.1234129070
 H       -10.2725813118        3.8726497389        8.4750443404
 H        -5.8844242201        7.3929610631        3.8246028677
 H        -6.8749048239        8.6922212899        3.1169451631
 H        -5.7431298464        7.7725890399        2.1639081142
 H        -8.9453698866        6.6932967326        0.6494527217
 H        -7.6187885830        7.7982340707        0.5814815497
 H        -8.9714594341        8.2155994158        1.6138975382
 H        -2.8215242475        3.0043269166       -0.6461202719
 H        -3.6233126310        1.7611810326       -1.7207321430
 H        -4.1069029852        2.0024895405        0.0013380148
 H        -4.6849290330        5.3694616415       -2.7103306383
 H        -4.6626833773        3.8008191875       -3.5072150914
 H        -3.3198811162        4.3109949919       -2.4635473466
 H        -9.8570791336        7.2178586945       -4.1232540666
 H        -8.4581053382        6.1519043152       -4.1426323775
 H        -9.0803302644        6.8892934238       -2.5091822288
 H       -11.6590266972        6.8881622380       -2.5645079114
 H       -12.2881091945        5.1649144237       -2.3708899959
 H       -12.1353583610        6.0733181949       -3.9944212967
 H       -10.7277343489        2.8154845543       -9.1424338330
 H       -10.5719453462        1.2519677519       -9.7333582334
 H        -9.8880300573        1.7008030897       -8.1693544977
 H       -14.1031045788        0.9215837669       -8.7881042060
 H       -12.8028903652        0.7208503808      -10.0535640566
 H       -13.3649173947        2.4173850047       -9.5504958891
 Na      -10.1591205376        4.8681815395        1.2938880942
