117

 C       -10.4512877908       10.6849937858       -3.5554094094
 C        -9.1755184450        9.7804235545       -3.8463329817
 O        -9.4303875664        8.5567963047       -3.9325402987
 C        -7.9073865480       10.4050750525       -4.3600289707
 C        -7.2695789303       11.2971036578       -3.1779093188
 O        -7.7090990645       12.3636504646       -2.8399481822
 C        -6.0586284253       10.7678146313       -2.4022307705
 C        -6.6202866121       10.0773446179       -1.1296618101
 C        -5.8495256999        8.8991034420       -0.6227180572
 O        -5.0535498169        8.3494651389       -1.3732590202
 C        -6.1155164715        8.3868482986        0.8907201394
 C        -7.6565026042        8.0693481594        0.9695383443
 O        -8.4379084326        8.9894641940        1.0526106200
 C        -8.1575681801        6.6140398103        0.6054019640
 C        -9.2629278060        6.6111079149       -0.4078542598
 C        -9.8549000935        5.2121249575       -0.5174736304
 O        -9.2897924595        4.2560684948        0.0182236106
 C       -11.1651106910        5.0752581050       -1.2256768236
 C       -12.0346279009        4.0107029010       -0.5028732155
 O       -11.7607978223        2.7802333014       -0.6797499231
 C       -13.3377680321        4.4282597779        0.1619154380
 C       -13.9706573511        3.1980351679        0.9300003797
 C       -13.0822060463        2.6239025422        2.0467591896
 O       -11.9872486713        3.0319884969        2.3255794210
 C       -13.7783570253        1.3828882512        2.8121653873
 C       -12.7298005943        0.2221725345        2.8215896795
 O       -11.5812049358        0.4765474405        2.5358326950
 C       -13.1681852822       -1.1843354592        3.4094383977
 C       -12.4708743740       -2.4005821443        2.7784163593
 C       -12.6802012909       -2.5520217032        1.2727442911
 O       -13.1374507608       -1.6356868820        0.6613248263
 C       -12.2214915493       -3.8011869851        0.5367809094
 C       -10.6100427762       -3.6213219161        0.3266514380
 O        -9.8226839724       -4.2811585941        0.9270765559
 C       -10.2521207810       -2.3801661808       -0.6147408201
 C        -8.7718714851       -2.0464893758       -0.5323290532
 C        -8.5825118870       -0.5609097802       -0.0068188338
 O        -9.5934511906        0.1743650235        0.1762630735
 C        -7.2271311099        0.0267655123        0.3027808847
 C        -7.2938353899        0.7822102465        1.7660598946
 O        -7.8554332528        1.8652722601        1.8143409547
 C        -6.6593541473        0.0362455844        2.8971910089
 C        -6.1020278263       -0.9850992260        0.1657885257
 C        -6.9997061562        1.2522643984       -0.7815848174
 C       -12.3839314060       -5.1284265784        1.2923255072
 C       -12.7432273871       -3.9282224992       -0.9121544223
 C       -13.9129383600        1.8421248069        4.4159305801
 C       -15.1933489219        1.0907387978        2.2489079445
 C       -11.9744302564        6.4474370284       -1.3259672717
 C       -10.7794458119        4.7077387539       -2.6514724092
 C        -5.2673333668        7.1783675043        1.1368318325
 C        -5.8162656399        9.5394031602        1.8409067785
 C        -6.9404242679        9.3629322057       -4.8912641051
 C        -8.4958632197       11.3932404571       -5.4967128292
 H       -10.0739824490       11.6359020158       -3.1176129730
 H       -11.0365566386       10.1722942277       -2.7215622064
 H       -10.8751037571       10.8541263986       -4.5482882856
 H        -5.4488971654       11.6021074065       -2.3471763049
 H        -5.4905048717        9.8814479004       -2.9202978333
 H        -7.6665126478        9.7540847839       -1.1398411719
 H        -6.6075175441       10.8735220506       -0.3770007898
 H        -8.5630836565        6.1066481393        1.4492311969
 H        -7.3236195494        5.9337088377        0.2974512361
 H        -8.9072241751        6.9041656459       -1.3666315375
 H       -10.0101738404        7.3298415447       -0.1015355658
 H       -14.1283005802        4.7751312429       -0.4853075951
 H       -13.3001202898        5.1904710502        0.8380769782
 H       -14.0730490519        2.4863162709        0.1274413146
 H       -14.9621882422        3.4309769442        1.3762574022
 H       -14.2597724743       -1.4198581872        3.4424624912
 H       -12.7947547180       -1.1472966128        4.4594916785
 H       -12.7680506215       -3.2223430918        3.4320962981
 H       -11.3918067539       -2.4180045906        2.8835479429
 H       -10.9087921766       -1.5421571382       -0.3061415931
 H       -10.4829635415       -2.7101586357       -1.6158973978
 H        -8.1309080801       -2.2751671207       -1.4241444646
 H        -8.4672313914       -2.6656639590        0.3492713739
 H        -6.9169177341       -1.0327862032        2.9597147677
 H        -6.9679382195        0.4157642113        3.8951285483
 H        -5.5756230354       -0.0326057563        2.8853083871
 H        -6.1505511338       -1.2869092680       -0.8096189198
 H        -6.1500665717       -1.8994212960        0.8724020483
 H        -5.1150918414       -0.4446572963        0.2416659262
 H        -7.8825939108        1.8767288338       -0.7017388115
 H        -6.9061307276        0.8670461121       -1.7230383521
 H        -6.0756139989        1.7577075236       -0.6224964831
 H       -13.4352507490       -5.2452308142        1.6275944595
 H       -11.6341992397       -5.3293063830        2.0783360793
 H       -12.3600941918       -5.9313104582        0.5037282391
 H       -12.2332486584       -3.3286894361       -1.6827538052
 H       -13.7693528691       -3.5790555661       -0.8934495582
 H       -12.5740378916       -4.8770637473       -1.3577399457
 H       -14.3045575197        2.8127184037        4.5365598451
 H       -12.8927059579        1.9149255302        4.7682499870
 H       -14.5055286836        1.1623317237        5.0469863094
 H       -15.8313358582        1.9791224682        2.1560455616
 H       -15.7010689440        0.2843552526        2.8504829153
 H       -14.9976749944        0.6744099638        1.2611868722
 H       -12.9458238218        6.2572206430       -1.7387822357
 H       -11.4723685473        7.2105517286       -2.0413384875
 H       -12.1249179983        6.9753325081       -0.3983468378
 H       -10.1324745662        3.8540660892       -2.5895009090
 H       -10.4742770211        5.6028830303       -3.1252230743
 H       -11.5852846874        4.3995226310       -3.3333103507
 H        -4.2255174999        7.4433738199        0.8546091919
 H        -5.4773186607        6.3452939611        0.4902108576
 H        -5.2319505287        6.8373721635        2.1856035414
 H        -6.7403689643       10.1236417569        1.9388923631
 H        -5.1204540538       10.2744010231        1.4662447207
 H        -5.4396635785        9.1055021049        2.7893264704
 H        -6.4371644298        8.7763980470       -4.1452970726
 H        -5.9785050230        9.7638992812       -5.3666675523
 H        -7.3209664039        8.6892466186       -5.6396953301
 H        -9.3924752199       10.9031299014       -5.7957182566
 H        -7.8172744286       11.7137001708       -6.2779129596
 H        -8.7590942256       12.2971641216       -4.9727721257
 Na      -10.2180975459        2.1862072694        0.9690642749
