117

 C       -12.6513552886       -1.6077458692       -8.2208753825
 C       -12.3904699579       -0.3266174305       -7.4234763066
 O       -12.5517654056       -0.2605877330       -6.2245609631
 C       -11.9577003019        0.9841019276       -8.1613384670
 C       -11.9574564864        2.1859869794       -7.1118321461
 O       -12.8704266089        3.0172022856       -7.1264205483
 C       -10.8644969139        2.3017004672       -6.1170262863
 C       -11.1487816159        3.3576376063       -5.0487437367
 C       -10.0076015222        4.2668211709       -4.6199100390
 O        -8.9493152885        4.3173209178       -5.2343239774
 C       -10.1978691421        5.3442978085       -3.4835877708
 C        -9.9073770378        4.8128598182       -2.0446497500
 O       -10.3910616254        5.4114091869       -1.0366460004
 C        -9.1136140480        3.5389936305       -1.7678242740
 C        -7.5633969167        3.8565688852       -1.9021044715
 C        -6.6661504345        2.6784088547       -1.5554226974
 O        -7.1849330112        1.5335216683       -1.5018424182
 C        -5.1216578336        2.8724835678       -1.6185700139
 C        -4.7480502342        4.0543304028       -0.6903392361
 O        -4.6550878615        5.1725695557       -1.1303329659
 C        -4.5449628876        3.8253625458        0.8149124806
 C        -4.8807827961        5.1773176523        1.5984973479
 C        -6.3769128821        5.5440479414        1.6600779046
 O        -7.1674323234        4.9862682947        0.9456489937
 C        -6.9827700371        6.6680043751        2.5882052322
 C        -8.0245727437        6.0197270034        3.5690793571
 O        -8.9179733669        5.3134545789        3.1500129941
 C        -8.1422814422        6.5727231167        5.1328462248
 C        -9.3112488651        5.9121614311        5.8542464304
 C        -9.1388742969        4.3744923101        6.0265361212
 O        -8.3335460325        3.6410448593        5.5090600076
 C       -10.2983367530        3.7629673971        6.9757012501
 C       -11.3850568437        3.1270644194        5.8200502239
 O       -12.3764103150        3.6862405883        5.5191929268
 C       -10.8369354003        1.8824052931        5.1330375216
 C       -11.8340210744        1.5129332934        4.0316261296
 C       -11.7431224859        2.5098616396        2.8791908472
 O       -10.6572535504        2.9455005365        2.6295175092
 C       -12.9817612236        2.9761574101        2.0940548356
 C       -13.0253255793        4.5178437773        2.2637559114
 O       -12.0599085143        5.1896341431        1.9138312347
 C       -14.2839360483        5.2061892110        2.6404693536
 C       -12.9037505057        2.7304720565        0.5262981435
 C       -14.3340651209        2.4108575668        2.5914027822
 C        -9.7407567036        2.7140456548        7.8910648776
 C       -10.9320864015        4.8208597104        7.8846813800
 C        -5.8773207147        7.3545220174        3.3715263845
 C        -7.8026245720        7.5826734522        1.6999408615
 C        -4.4771255896        1.5572855538       -1.0077476943
 C        -4.6628920099        3.1556972507       -3.0203461440
 C        -9.1615726134        6.5548988366       -3.6948383158
 C       -11.6072017075        6.0743150277       -3.6219601387
 C       -10.6095623199        0.9152561483       -8.8236352634
 C       -13.0308690529        1.3272373166       -9.2100665139
 H       -13.6452854107       -1.6825586644       -8.6982033733
 H       -12.7214918375       -2.3846541332       -7.5443063787
 H       -12.0038626862       -1.7755848752       -9.0095213379
 H        -9.9834575227        2.5881264275       -6.7208806572
 H       -10.6953423277        1.3746842059       -5.5948751398
 H       -11.4611051836        2.8497466842       -4.1731641485
 H       -11.9819172321        3.9346733629       -5.5460018586
 H        -9.3508453560        2.8371284823       -2.5441070017
 H        -9.4496477972        3.2404629192       -0.7731639684
 H        -7.2755123160        4.7838674096       -1.3507944255
 H        -7.3135347476        3.9921114774       -3.0380259771
 H        -3.5010696654        3.6549388929        1.1372758584
 H        -5.1268246378        2.9720801737        1.1876818757
 H        -4.3885657928        5.9616661841        1.0327385392
 H        -4.4445312300        5.0842183503        2.6179988281
 H        -8.3261406803        7.6701009922        5.0158180472
 H        -7.2113931984        6.2647199061        5.6103580460
 H       -10.3005495228        6.0310542150        5.3688708638
 H        -9.4341316823        6.4029052746        6.8302816252
 H       -10.7877759192        1.0293564513        5.8251406769
 H        -9.8668868697        2.0382406347        4.7311528296
 H       -12.8891917059        1.6204762347        4.4683736739
 H       -11.6738211079        0.4961544979        3.6425097877
 H       -14.1480783613        6.3175204007        2.7271289735
 H       -14.7431410668        4.7782700815        3.5490240258
 H       -15.0442621907        4.9815548277        1.9247044681
 H       -13.8029561408        3.1739076707        0.0600805076
 H       -12.8546123701        1.6948616803        0.4005414647
 H       -12.0810721886        3.1837056473       -0.0216911796
 H       -15.0877293254        2.9122060104        2.0143801817
 H       -14.4818841010        2.6036865949        3.7069562772
 H       -14.4154890262        1.3368420467        2.4659863432
 H        -9.0720825844        3.1714279773        8.5188859356
 H        -9.1280150324        2.0557355221        7.2509285479
 H       -10.4086991909        2.0192593270        8.3126463023
 H       -11.4221193149        4.2898466372        8.7424823936
 H       -11.7015396394        5.4315941909        7.4335351171
 H       -10.1411006869        5.4996701638        8.3066921464
 H        -5.3903717004        6.6566568338        4.0580283236
 H        -6.3167557701        8.2483518505        3.8222353461
 H        -5.0274063895        7.6331888687        2.7493738079
 H        -8.2903597208        7.0070269463        0.8933254650
 H        -7.1003760096        8.2903866962        1.2121892935
 H        -8.4856510936        8.1943178786        2.3250563430
 H        -3.3806548705        1.6419097203       -0.9077441517
 H        -4.5686370445        0.7252980366       -1.6914165563
 H        -5.0355837019        1.3577672658       -0.0810291559
 H        -5.1782832243        3.9053893325       -3.5442317879
 H        -4.6757919845        2.1783970500       -3.6093884706
 H        -3.6257662355        3.3690306424       -3.0278931686
 H        -9.2516495678        6.6311205301       -4.7868432718
 H        -8.1727016452        6.2535479721       -3.3406495890
 H        -9.5218164985        7.4569177840       -3.1645939787
 H       -11.7979843839        6.5439264742       -2.6729868108
 H       -12.4453505643        5.4133717916       -3.9757827592
 H       -11.5248329879        6.6863747753       -4.4794877563
 H       -10.3942378119        1.8272614209       -9.3197550139
 H       -10.6625806861        0.1786735281       -9.6234666770
 H        -9.7386979590        0.6120069164       -8.2538533477
 H       -14.0226544860        0.8118852710       -8.9737115636
 H       -12.7259310493        1.1061894943      -10.2519307324
 H       -13.1580500440        2.4524227824       -9.1669437021
 Na       -9.8413030436        4.5239630635        1.2233953805
