117

 C       -12.8394293974       -1.4692898299       -8.1369938255
 C       -12.3380274350       -0.2786670234       -7.2881288504
 O       -12.4329584735       -0.2780497921       -6.0887734472
 C       -11.9554812254        0.9912377935       -8.0732231192
 C       -11.8648718029        2.1753782283       -7.0848696806
 O       -12.6491931382        3.0768582153       -7.1360175524
 C       -10.7698855869        2.2834409569       -6.0540815340
 C       -11.1739970448        3.3317453424       -4.9436691645
 C       -10.0029290385        4.2576212944       -4.5717054090
 O        -8.9497483009        4.2472927099       -5.1597547442
 C       -10.2558767519        5.3498647051       -3.4321013408
 C        -9.9024674049        4.7678885084       -2.0918787997
 O       -10.1829509893        5.3576571090       -1.1030329592
 C        -9.0465143192        3.4624819389       -2.0549322121
 C        -7.5647991193        3.6760470506       -2.1990084893
 C        -6.7156290414        2.5308376228       -1.7003481210
 O        -7.2573778855        1.5569234148       -1.3296353144
 C        -5.1369743226        2.6927973043       -1.6466487992
 C        -4.7940377587        3.9801600161       -0.7148279995
 O        -4.5533537074        5.0623028123       -1.2133518112
 C        -4.7730335266        3.8271488557        0.7809055523
 C        -4.9966395812        5.1981055521        1.4766516525
 C        -6.4800920383        5.4995938631        1.5032555319
 O        -7.2929959255        4.7535798947        0.9232808225
 C        -6.9119141626        6.6418557961        2.5098244917
 C        -8.0701586101        6.0481540170        3.4361953246
 O        -8.9237545919        5.3003915628        2.9762703647
 C        -8.1225656861        6.4855197565        4.8982098331
 C        -9.4083763645        5.9946211719        5.5542131111
 C        -9.2483475718        4.4905120932        6.2087210565
 O        -8.3169932220        3.7789534942        5.8462416165
 C       -10.3994195028        3.7883313535        7.0700318756
 C       -11.4334709029        3.2614562291        6.0372593643
 O       -12.4676232509        3.9087091596        5.7563431664
 C       -10.9763487048        1.9510989636        5.3037222805
 C       -11.8632549974        1.6179292309        4.0536376270
 C       -11.7545279988        2.6498385536        2.9198805272
 O       -10.6256948125        2.9886967310        2.5173967748
 C       -12.9720017485        3.1095587709        2.0937493898
 C       -13.0969761172        4.6594666705        2.2614579478
 O       -12.1626338789        5.3591515254        1.9035827801
 C       -14.3194104343        5.2483035900        2.9429080487
 C       -12.6631191169        2.7818687742        0.6368356495
 C       -14.2199643273        2.2410935903        2.3942137292
 C        -9.8065200079        2.6506848646        7.9135026381
 C       -11.2307047729        4.8777283482        7.8876998226
 C        -5.7705416487        7.2737527674        3.3206238802
 C        -7.3751461472        7.8274836205        1.5458988230
 C        -4.5026033219        1.4143555345       -1.1206674901
 C        -4.5631923554        3.0067408731       -3.0084102620
 C        -9.2003145448        6.5192425697       -3.5490519790
 C       -11.7116932446        5.8707240538       -3.4525901892
 C       -10.5819702756        0.8256250848       -8.8281528952
 C       -13.0653689820        1.2203893505       -9.1026027154
 H       -13.9161390387       -1.5612292440       -8.1629032381
 H       -12.6081457133       -2.5419807418       -7.8014589942
 H       -12.5355726265       -1.3222752767       -9.2071105841
 H        -9.7885618359        2.5051989005       -6.4734219964
 H       -10.6984941943        1.3189854523       -5.5116031621
 H       -11.5294786152        2.8112586793       -3.9982094196
 H       -11.9464334201        3.8594547240       -5.4673428668
 H        -9.3386287043        2.8800178062       -2.9496660791
 H        -9.3248331118        3.0464230976       -1.0659457735
 H        -7.3004004561        4.6069170134       -1.6842101226
 H        -7.3129624791        3.7499874065       -3.2073764357
 H        -3.8072317293        3.5029082831        1.1000032011
 H        -5.4598002380        3.1050092650        1.2009031363
 H        -4.5059024424        6.0464941947        0.9201800381
 H        -4.6280836515        5.0919457012        2.5063988410
 H        -8.0996699402        7.5716691368        4.9238085133
 H        -7.2318863047        5.9871965900        5.3366925921
 H       -10.2689117339        5.9787140919        4.8814536510
 H        -9.6293589965        6.7348153298        6.3241964883
 H       -11.0050537993        1.0682004176        5.9329699997
 H        -9.9173344102        2.0529998939        4.9312524005
 H       -12.8513737667        1.4550256836        4.3218601186
 H       -11.4358054373        0.7009771412        3.5825737648
 H       -14.1026891195        6.3016969128        3.0423876797
 H       -14.6155744776        4.7370064392        3.8184811482
 H       -15.2438646994        5.2353476115        2.3275264979
 H       -13.4600022395        3.1433312685       -0.0689430819
 H       -12.3491417596        1.6756112823        0.4699092217
 H       -11.8062255073        3.3950336530        0.3490648351
 H       -15.0761349384        2.4563803761        1.7375923314
 H       -14.5537701457        2.4370899484        3.3605044749
 H       -13.8977813989        1.2027913586        2.2706470274
 H        -9.3275367956        3.0747863214        8.8538687370
 H        -9.1264444405        1.9916121396        7.4282696139
 H       -10.6086507180        1.9211620744        8.1733210492
 H       -12.1057520727        4.4263283058        8.3317988791
 H       -11.6633357982        5.6552472636        7.2266630268
 H       -10.6000148731        5.3863291271        8.6070789318
 H        -5.2040193008        6.5031986179        3.8990219265
 H        -6.2445096729        7.9888707377        3.9599073617
 H        -4.9384980381        7.6657582346        2.7672652195
 H        -8.2400190670        7.4766305375        0.9423075110
 H        -6.6478731792        8.1684809860        0.8045978137
 H        -7.6171467650        8.6418901439        2.2323295430
 H        -3.4553860262        1.4603947863       -1.2835531403
 H        -4.8244576261        0.6113092277       -1.7649714849
 H        -4.6990933487        1.1857205758       -0.0915838087
 H        -4.9458684298        4.0620402351       -3.1867828106
 H        -4.8401380673        2.4344160376       -3.8224999384
 H        -3.4401863317        3.0793211478       -3.0280052112
 H        -8.9500890514        6.6270103599       -4.6198319859
 H        -8.2691122877        6.1558520144       -3.0349059501
 H        -9.6306460850        7.3210410264       -2.9770887882
 H       -11.9132287638        6.6041142401       -2.6478720951
 H       -12.3775387978        5.0351700166       -3.4010700374
 H       -11.8425392996        6.2214044407       -4.4997512741
 H       -10.2662023031        1.7963158445       -9.2920868235
 H       -10.6059660766        0.1460262269       -9.6731471146
 H        -9.7685694469        0.5170118120       -8.1780164863
 H       -13.9865542396        1.3464209262       -8.6378904579
 H       -13.1175968082        0.3472318289       -9.7102137707
 H       -12.8685475023        2.0283601827       -9.7046312035
 Na       -9.7309108623        4.7186864793        1.0260850544
