117

 C       -12.8491058886       -1.5678669979       -7.8613421713
 C       -12.3938585043       -0.3345393675       -7.1619112470
 O       -12.0428323296       -0.3736512009       -5.9730158151
 C       -12.0409409152        1.0299484875       -8.0363754423
 C       -11.8710836207        2.2968973087       -7.1153689734
 O       -12.6037072218        3.2736569977       -7.2179734851
 C       -10.8735170626        2.2534742661       -5.9948686860
 C       -11.0836577324        3.3341943973       -4.8776831965
 C        -9.9023189176        4.2683328419       -4.6194570264
 O        -8.8221395017        4.1206144072       -5.1425106283
 C       -10.1897291448        5.3800785298       -3.4542888087
 C        -9.7149843518        4.6602415250       -2.1998193981
 O       -10.1637748156        5.1289685996       -1.1174255571
 C        -9.0168327160        3.3194089241       -2.0297942344
 C        -7.5040714966        3.5177458107       -2.4888961291
 C        -6.6252733833        2.4419167589       -1.8185764554
 O        -7.1400839558        1.6100645193       -1.0918457426
 C        -5.1245360558        2.5867747586       -1.7742092399
 C        -4.8300329281        3.8112375658       -0.8697463938
 O        -4.6070529343        4.9201181471       -1.3440760844
 C        -4.8739391197        3.6259132330        0.6482846349
 C        -5.0561594442        4.8949765832        1.4700647578
 C        -6.5444945214        5.3446496728        1.5491110090
 O        -7.3997781014        4.8341013803        0.8951107990
 C        -6.9297533593        6.6011510404        2.5348699130
 C        -8.1607391485        6.2166935884        3.3684207688
 O        -9.1410605223        5.6522829709        2.9488977308
 C        -8.1342879755        6.4323559089        4.8822360248
 C        -9.4601686039        6.0408761847        5.6016229057
 C        -9.2369186629        4.6589716319        6.2451442588
 O        -8.2308628671        4.0046340732        6.2891311121
 C       -10.5194946906        4.0439168000        7.0441482983
 C       -11.4605888810        3.3859609149        5.9485950924
 O       -12.5558261423        3.8893749816        5.6891334658
 C       -11.0677220637        2.0599170478        5.2991436557
 C       -11.9461785492        1.7601204581        4.1006638117
 C       -11.6099510400        2.6434286537        2.8410602565
 O       -10.4818348748        2.9400240686        2.5977656640
 C       -12.8207773672        3.1207563390        1.9120470041
 C       -13.0217602250        4.6534592480        2.2071885852
 O       -12.1756053237        5.4508956037        1.8537751188
 C       -14.0911845588        5.1422743138        3.1332378183
 C       -12.4726245176        2.9201186564        0.4352094189
 C       -14.1793270842        2.4466681278        2.3067685078
 C        -9.9332385324        2.9139544910        7.9920241356
 C       -11.2477221670        5.0319824868        7.9916278201
 C        -5.6251011368        7.0734165964        3.3664401371
 C        -7.4720652152        7.7515087977        1.5335891846
 C        -4.5100129295        1.2482440727       -1.1616340042
 C        -4.6802001512        2.8263215149       -3.2275988172
 C        -9.4031471313        6.6369487424       -3.8268659091
 C       -11.7162406751        5.7358165409       -3.2520851395
 C       -10.6953980733        0.5917810476       -8.5786630523
 C       -13.0221491509        1.5080075340       -9.2313433129
 H       -13.9582940737       -1.6510714677       -7.8701150096
 H       -12.6354322408       -2.4378029375       -7.3033791419
 H       -12.4748063753       -1.7030522017       -8.8716948811
 H        -9.8381978435        2.4057722780       -6.3913346781
 H       -10.7921724858        1.3055368746       -5.4838800324
 H       -11.2108259015        2.8497292705       -3.9464932059
 H       -11.9959073129        3.9205287733       -5.1336969514
 H        -9.5308696671        2.6082775839       -2.6679523645
 H        -9.0640513889        3.1217962760       -0.9842131149
 H        -7.1330114138        4.4699751306       -2.1426870636
 H        -7.3752060586        3.4749180992       -3.6080818963
 H        -3.9197739299        3.0882026110        0.9640501358
 H        -5.6903941057        2.9688146272        1.0093052317
 H        -4.5326124335        5.6940661477        1.0181741792
 H        -4.7753973622        4.6944146700        2.5166808414
 H        -7.8488133167        7.4705417160        5.0338325078
 H        -7.3545238638        5.7679107164        5.2142641706
 H       -10.2808709164        5.8230540567        4.8992117520
 H        -9.8176874573        6.7820103136        6.3382306506
 H       -11.1369227405        1.2051773057        6.0055069782
 H       -10.0475926595        2.1644938624        4.9982862256
 H       -12.9860599713        2.0717292084        4.4689723904
 H       -11.9817306927        0.7472232202        3.8138732233
 H       -14.1846324885        6.2144754662        3.1257600724
 H       -13.8610062198        4.5958974375        4.1125657056
 H       -15.0996300697        4.8171155832        2.9220633822
 H       -13.2341579918        3.1407263184       -0.2133468769
 H       -12.1512481364        1.9654738660        0.2228169500
 H       -11.6607079411        3.6117800601        0.1810917081
 H       -14.9929475635        2.7764529497        1.6848410534
 H       -14.4811361017        2.8706932277        3.3239233493
 H       -14.0932911839        1.3648946242        2.1932982703
 H        -9.3221133557        3.3039604396        8.7915093430
 H        -9.3573279363        2.1513476123        7.3942063878
 H       -10.6839810884        2.2771770294        8.4766737955
 H       -12.1673878711        4.5655515047        8.2649740457
 H       -11.5533118040        5.9493058962        7.5360755714
 H       -10.6429699093        5.2424716334        8.8331614114
 H        -5.3074698984        6.4052725099        4.1052540947
 H        -5.8496658095        8.0289037366        3.8796114503
 H        -4.7383972178        7.1554684723        2.7274774447
 H        -8.4133249352        7.4545350189        1.1992791110
 H        -6.8745847139        7.7082822250        0.6437433949
 H        -7.4121564614        8.7170368247        2.0008953050
 H        -3.4182183082        1.3834950971       -0.9204631331
 H        -4.7017592486        0.3090404375       -1.7132438863
 H        -4.9344764178        1.1538327095       -0.1398273541
 H        -4.8590825420        3.7647179918       -3.6801488856
 H        -5.2454459518        2.0814537514       -3.9051907265
 H        -3.6485589523        2.6263298980       -3.2928177854
 H        -9.9519973173        7.1040120534       -4.6307956143
 H        -8.4926433842        6.3755990460       -4.3541046940
 H        -9.3043251630        7.1726324036       -2.8761590230
 H       -11.6893830379        6.6468794461       -2.6638719036
 H       -12.1322611584        4.9357629679       -2.6143061622
 H       -12.2742173717        5.9429254152       -4.1591924865
 H       -10.2014971861        1.2202086397       -9.2795529567
 H       -10.7701083967       -0.3861928711       -9.1123760322
 H        -9.9973395959        0.5007821488       -7.7295403024
 H       -13.7316327058        2.2456664238       -8.7896082744
 H       -13.6326435572        0.7319457381       -9.6764577195
 H       -12.4552126033        2.1167781029      -10.0131368980
 Na       -9.9605109445        4.7936334407        1.0317265018
