117

 C       -13.8801429155       -1.0781494422       -7.0758885717
 C       -12.4329129857       -0.4551692368       -6.9345760598
 O       -11.8383463519       -0.7656417251       -5.9424451851
 C       -11.8540471873        0.6025766658       -7.9410615672
 C       -11.9604103673        1.9876859064       -7.2488986218
 O       -12.9864006277        2.7032234009       -7.3316553588
 C       -10.7810586523        2.4441096638       -6.4233715694
 C       -11.1855407919        3.6587917708       -5.5901636960
 C        -9.9595804683        4.1971228568       -4.8601330921
 O        -8.7994326623        3.8462053643       -5.1073588271
 C       -10.0637117406        5.3361388209       -3.6669610691
 C        -9.7751893839        4.6962065990       -2.2464079962
 O        -9.8602684400        5.3774720867       -1.2651609266
 C        -9.2581626169        3.2149470964       -2.1045808688
 C        -7.7731192851        3.2411308266       -2.3435648392
 C        -7.0381956837        2.0553494852       -1.6608211692
 O        -7.4860048812        0.9564893596       -1.2568474648
 C        -5.3496891369        2.3376090948       -1.7060268465
 C        -5.0033284871        3.4897657263       -0.6610159794
 O        -4.8088219086        4.6516997085       -0.9973806285
 C        -5.1448851061        3.0403086713        0.8325255537
 C        -5.0880431415        4.2305549454        1.7716096515
 C        -6.5280965352        4.7842287161        1.9837207782
 O        -7.4752559082        4.1301118518        1.6536675192
 C        -6.7738044691        6.2744689321        2.4041839869
 C        -8.0236363660        6.2197990437        3.4733797849
 O        -9.1062314278        6.1471926282        2.9816583563
 C        -7.8107981994        6.5122839716        4.9657751409
 C        -9.0612619065        6.3758284011        5.9394033359
 C        -9.1381547397        4.9425467061        6.6653269724
 O        -8.2383308001        4.1734374267        6.8339277840
 C       -10.6583357743        4.5358777991        7.1674605740
 C       -11.3515158736        4.0082016587        5.7928541891
 O       -12.1855416087        4.6072878406        5.2213986435
 C       -10.6835844738        2.7193018377        5.2764657715
 C       -11.5618760689        2.1464913152        4.1972727241
 C       -11.5764178063        3.0513238086        2.9230147861
 O       -10.4600300658        3.4658382907        2.5971566935
 C       -12.8106241846        3.3533011341        2.0516498694
 C       -13.0588401220        4.9088684488        1.9109379430
 O       -12.2067306172        5.6097688195        1.4364582447
 C       -14.4341452429        5.4025852744        2.3777032539
 C       -12.5259242703        2.8793815600        0.6346318504
 C       -14.0906183363        2.5873502375        2.5348595310
 C       -10.5174979965        3.3805277662        8.2841214976
 C       -11.3706836672        5.7952411574        7.7980414509
 C        -5.5287434830        7.0531760934        2.9990466363
 C        -7.2253754644        7.1681410360        1.1658609172
 C        -4.6402422299        1.0188157781       -1.4629297100
 C        -4.9903798651        2.8549685564       -3.1790558491
 C        -9.0079660785        6.4875804364       -3.9891637819
 C       -11.5041062450        5.8841905623       -3.7426703380
 C       -10.3303883105        0.4409862441       -8.3546910778
 C       -12.6863914343        0.6194777798       -9.2780611694
 H       -14.6349440452       -0.2742564154       -7.1627103917
 H       -14.0874348690       -1.8506015325       -6.2804882536
 H       -14.0330841795       -1.6972442795       -7.9954595365
 H        -9.9435200098        2.6252441865       -7.1171541113
 H       -10.3985796163        1.5875862874       -5.8339206746
 H       -12.0409041256        3.4507586681       -4.9856145435
 H       -11.6050183235        4.4929502678       -6.1478409755
 H        -9.8043664651        2.4532019390       -2.6479516236
 H        -9.5079091471        2.9236752136       -1.1437055631
 H        -7.2742092976        4.1406684333       -1.8767518435
 H        -7.5249790342        3.2951592870       -3.3477755542
 H        -4.4321322316        2.2252853969        1.1611940693
 H        -6.1393137337        2.5634545595        0.9841108421
 H        -4.5689520187        5.0725445646        1.3622965433
 H        -4.6327406400        3.9865112929        2.7368428737
 H        -7.2880260705        7.4233199018        4.9593401420
 H        -6.9859853264        5.9100341832        5.3029893209
 H       -10.0107866817        6.6250014293        5.4844854377
 H        -8.9075031095        7.0645439709        6.7904870506
 H       -10.3906629058        1.9725358284        5.9855252436
 H        -9.6984769782        3.0854742002        4.8543684691
 H       -12.5022958636        1.9868822444        4.6034686996
 H       -11.2220703404        1.1265571131        3.9248366198
 H       -14.4576751964        6.5241250074        2.2878116876
 H       -14.5970821958        5.3077719305        3.4096747847
 H       -15.3144939945        4.9517349266        1.9008779459
 H       -13.4451107393        2.7462962044        0.0420164462
 H       -11.9651630937        2.0129304515        0.5750224742
 H       -11.9071772276        3.5576360682        0.0941998468
 H       -14.9269729762        2.7928344891        1.8331578156
 H       -14.3808758905        2.9169011130        3.4820551307
 H       -13.8906550064        1.5240788420        2.6664648689
 H        -9.8600709691        3.8221304139        9.0854904555
 H        -9.9445538891        2.4574031001        8.1079203334
 H       -11.5044127987        3.0764938133        8.7417626293
 H       -12.1617288541        5.4421013921        8.4705325010
 H       -11.7937964137        6.3872988790        6.9957379792
 H       -10.6903986081        6.4542392863        8.3776073477
 H        -5.2098918900        6.5534272051        3.9896372884
 H        -5.7583319841        8.0754931640        3.1459103061
 H        -4.6634106011        7.0595287092        2.3714100616
 H        -8.0852108253        6.7060383018        0.6063259266
 H        -6.2725909714        7.2127485638        0.6550241567
 H        -7.5381183596        8.1507565631        1.5040191113
 H        -3.6171968001        1.1860709961       -1.2806600957
 H        -4.6368685426        0.4083944723       -2.3487835971
 H        -4.9948647521        0.4103397142       -0.6653141768
 H        -5.3420683014        3.8993226711       -3.3246725754
 H        -5.4581033313        2.2503127685       -3.8985001784
 H        -3.9349522895        2.7984743665       -3.5270122396
 H        -9.4092326801        7.0516407509       -4.8586409659
 H        -8.0022084768        6.0309449648       -4.0919732586
 H        -8.9119950130        7.2478653411       -3.1815887514
 H       -11.6086427934        6.6541244716       -2.9578125973
 H       -12.3071864508        5.1865334754       -3.5669431091
 H       -11.6948179353        6.3794634927       -4.7267173215
 H        -9.9707298497        1.4487183953       -8.6582321515
 H       -10.1751616467       -0.2938261293       -9.1233923752
 H        -9.7740888211        0.0737028115       -7.5102663486
 H       -13.5947064207        1.1412147779       -9.2008058590
 H       -12.8960532770       -0.3262359011       -9.6775275360
 H       -12.1399854617        1.1207910208       -9.9784009238
 Na       -9.6003195120        4.9715214787        0.9977434072
