117

 C       -13.8874532479       -0.9444724089       -7.0128281848
 C       -12.4530740753       -0.4120780326       -6.9113918723
 O       -11.7262865272       -0.7548371660       -5.9807189090
 C       -11.8765120014        0.6130245711       -8.0021917167
 C       -12.0067963980        1.9783636697       -7.2952516867
 O       -13.0533715410        2.5934572710       -7.2556674434
 C       -10.8004978503        2.4833355265       -6.3814955746
 C       -11.0554707125        3.7337569772       -5.6060941390
 C        -9.8798447609        4.2393161693       -4.8400575224
 O        -8.7664859756        3.7719216028       -5.0325516166
 C       -10.1197396904        5.3791373963       -3.7773337933
 C        -9.8561084207        4.7207728846       -2.3453098942
 O       -10.0703912901        5.4499868953       -1.3528950926
 C        -9.3082289466        3.2891461871       -2.1924290021
 C        -7.7997762719        3.2562719680       -2.2151289057
 C        -6.8920775241        2.0810862780       -1.7671344864
 O        -7.3759671404        1.0968202568       -1.2586497460
 C        -5.3829004498        2.2300292184       -1.7625075152
 C        -5.1627323287        3.3361947219       -0.5976011465
 O        -4.9698270445        4.4872707842       -0.8983440647
 C        -5.1287498206        2.9414507636        0.8954953070
 C        -5.0615046313        4.2043450335        1.7797303549
 C        -6.4590707468        4.8264953694        1.9641728839
 O        -7.3913791893        4.1452869363        1.5972760460
 C        -6.7434485899        6.2694949922        2.4633122618
 C        -8.0180958131        6.2553329740        3.4367312501
 O        -9.1863926852        6.1802545074        2.9915955062
 C        -7.7664707317        6.4603609482        4.9861146073
 C        -8.9291419911        6.3189020033        5.9523615208
 C        -9.1352235258        5.0493688514        6.6608784826
 O        -8.1868563324        4.2880616303        6.7557097498
 C       -10.5887431062        4.6677312523        7.1564231681
 C       -11.2317689464        4.0337173951        5.8710674207
 O       -12.0572826340        4.6154454856        5.2193448957
 C       -10.7279359765        2.6801196971        5.2049889930
 C       -11.7129841779        2.1856375529        4.1541935014
 C       -11.5455458371        3.0781928354        2.8990046122
 O       -10.4668378236        3.5686447454        2.6628893592
 C       -12.8650879503        3.2788751819        2.0220362043
 C       -13.1015164971        4.8752817211        1.9416920195
 O       -12.1951156340        5.5613224360        1.4826144566
 C       -14.4211121459        5.4832681651        2.2779665141
 C       -12.5400181078        2.7552253008        0.5882131704
 C       -14.1121959434        2.6084979301        2.6734796319
 C       -10.5985284664        3.5899115374        8.2335449215
 C       -11.3316654094        5.8677321378        7.6188699143
 C        -5.4799414222        6.9244024582        3.0373730314
 C        -7.1623601767        7.0661353097        1.2342239939
 C        -4.6632618325        0.9713950734       -1.3855295753
 C        -4.9180154926        2.8693276318       -3.0333913238
 C        -9.0443423223        6.3874813298       -4.0251075533
 C       -11.5314241161        5.9567877206       -3.7872603579
 C       -10.3942942283        0.2743746923       -8.2380356471
 C       -12.6955286177        0.4558187122       -9.3714961580
 H       -14.5557596796       -0.0336842162       -7.0497296123
 H       -14.1364508240       -1.6593422445       -6.2550784503
 H       -14.0979659791       -1.4389162058       -7.9561419540
 H        -9.8739926507        2.5199668011       -6.9138267337
 H       -10.6350796458        1.6072517996       -5.7066367162
 H       -12.0066944759        3.6402229754       -5.0476447931
 H       -11.3485076717        4.5412307001       -6.2117011829
 H        -9.7058353525        2.7179024973       -2.9454483706
 H        -9.8311014879        2.8470502632       -1.3176969205
 H        -7.3430666283        4.1348390514       -1.6911700410
 H        -7.5292015382        3.4461668350       -3.3021325180
 H        -4.2825388289        2.2981774372        1.0997044148
 H        -6.0277535545        2.3038307493        1.2073766497
 H        -4.2871274232        4.9042729112        1.4740484723
 H        -4.8925476041        3.9692366993        2.7941070460
 H        -7.2818299209        7.4268684543        5.0128937007
 H        -6.8826106285        5.8981699442        5.2465952845
 H        -9.8467388487        6.6970588555        5.4804713955
 H        -8.7233750615        6.9602718000        6.8113531474
 H       -10.6286192698        1.9045904409        5.9596537937
 H        -9.7275128179        2.7699389865        4.7900063610
 H       -12.7267067645        2.2028660326        4.6020967193
 H       -11.5602750802        1.0952927090        3.9019782294
 H       -14.3989430121        6.5467155424        1.9473391606
 H       -14.6729623308        5.6600490597        3.3282817061
 H       -15.2679950929        4.9446415585        1.8371055391
 H       -13.3271874409        2.6285910186       -0.0340575800
 H       -11.9554706919        1.9080908865        0.6393723011
 H       -11.8869658610        3.4329660375        0.0739695678
 H       -14.9568730065        2.9801574701        2.0798988615
 H       -14.2762463711        3.0971715376        3.6959997636
 H       -14.1533014077        1.5290778297        2.7937008726
 H       -10.0067605707        3.9763645072        9.0567863843
 H       -10.0224871192        2.6294449672        8.0369238814
 H       -11.5953527719        3.2747640674        8.5736269631
 H       -12.1286884521        5.4795192828        8.2401593190
 H       -11.7696282342        6.3496127693        6.8084319074
 H       -10.7471928519        6.5799774843        8.1910126410
 H        -5.0103333689        6.3393955579        3.8207856706
 H        -5.5311575318        7.9790461392        3.2461312249
 H        -4.7463346452        6.7831139845        2.2377029732
 H        -7.8040192661        6.3910210371        0.7165979269
 H        -6.2791716099        7.3365680366        0.7126121358
 H        -7.7806658443        7.8938060793        1.5327229674
 H        -3.6313035851        1.0838246063       -1.0693295684
 H        -4.5929840953        0.2213271327       -2.1379086519
 H        -5.2031547547        0.5640192898       -0.5291730966
 H        -5.3311741657        3.8356078195       -3.1086551331
 H        -5.2364594987        2.2471672974       -3.9405087381
 H        -3.8645722506        2.9530568066       -3.2000005086
 H        -9.4807733854        7.2998715318       -4.4356149113
 H        -8.1707463500        5.9255565202       -4.5099540652
 H        -8.6087877325        6.7247991677       -3.0597408846
 H       -11.5521917362        6.8063801563       -3.1351401103
 H       -12.3764822445        5.2969538988       -3.4580073485
 H       -11.8179355071        6.2218648078       -4.7738204452
 H        -9.8137655824        1.1874988578       -8.5322298348
 H       -10.2553988837       -0.5159359115       -8.9524778406
 H       -10.0374803896       -0.1459641063       -7.2795102446
 H       -13.7479511610        0.5371758292       -9.2299242409
 H       -12.4990077307       -0.4331667640       -9.8799190408
 H       -12.4550154308        1.2881736588      -10.0350785477
 Na       -9.6092472360        4.9893135720        0.9764118158
