117

 C       -10.3814358551       10.6412574163       -3.1468342557
 C        -9.4215610470        9.7179694288       -3.8326260366
 O        -9.5471777668        8.5484766183       -3.6775126941
 C        -8.1574348723       10.3287569110       -4.5814845407
 C        -7.4986210959       11.2410032860       -3.4265026026
 O        -8.1058135067       12.2710088237       -3.1803253954
 C        -6.2042004311       10.7578277384       -2.6262282057
 C        -6.5564262489       10.1800261518       -1.2388985781
 C        -5.6946397884        9.0931607723       -0.6741353861
 O        -4.9056429595        8.4815783073       -1.3497880959
 C        -6.0981809132        8.6339845981        0.8470222362
 C        -7.6000459918        8.2738995454        0.9106806717
 O        -8.5254549093        9.0802999062        1.0607554445
 C        -8.0474390409        6.8026829073        0.5699686664
 C        -9.1793892179        6.6095616033       -0.5675063029
 C        -9.8828128957        5.2454459742       -0.6008374535
 O        -9.4037772500        4.3180650272       -0.0017369963
 C       -11.1575281221        5.0413590887       -1.4480124820
 C       -12.0333397070        3.8018145233       -0.7604648553
 O       -11.5882534609        2.7030194823       -0.7233762142
 C       -13.2184968758        4.2856786877        0.0742173867
 C       -13.9971549622        3.1821577453        0.8958149064
 C       -13.1134069768        2.5695466968        2.1078026840
 O       -11.9793902413        3.0410039862        2.3984406646
 C       -13.7211941129        1.4953679508        3.0176589491
 C       -12.6839661710        0.1599842312        2.9324772223
 O       -11.5464496138        0.3038754093        2.4486743590
 C       -13.0995724587       -1.0813417137        3.7110360210
 C       -12.5067882857       -2.3771906603        2.9653392709
 C       -12.7665921577       -2.5208582922        1.4983297339
 O       -13.3120639784       -1.6123787142        0.9023333496
 C       -12.1793477092       -3.8124184171        0.7059720138
 C       -10.5865500963       -3.5459491557        0.4481755675
 O        -9.7509388236       -4.1571147653        1.1044247434
 C       -10.1970452304       -2.4388497163       -0.4874941200
 C        -8.7210014375       -2.0412051368       -0.2639722831
 C        -8.6765197128       -0.5299329993       -0.0321383517
 O        -9.5953311030        0.1980722397       -0.1465322155
 C        -7.2084849450        0.0635804089        0.2363013197
 C        -7.2325448110        0.6554740634        1.6497721053
 O        -7.8818924219        1.6727214249        1.7841260689
 C        -6.6914630774       -0.0647682567        2.8623817044
 C        -6.0855291088       -1.0234374375        0.1575321487
 C        -6.8665318244        1.1311186069       -0.8641291241
 C       -12.3881614706       -5.1025316076        1.4817553954
 C       -12.9246291247       -3.8927971950       -0.6174034682
 C       -13.9088070176        1.8907435171        4.4980295442
 C       -15.1393339889        0.9508764209        2.5922144309
 C       -11.9577601982        6.3224881081       -1.6970349157
 C       -10.5544207588        4.6241645748       -2.8754241503
 C        -5.1491813949        7.4997175433        1.2520954669
 C        -5.8581915665        9.8297377545        1.8598946028
 C        -7.2691563772        9.1691418247       -5.0620879596
 C        -8.4833689922       11.2043251415       -5.8783267672
 H       -10.1489613348       10.8082767661       -2.0972237553
 H       -11.2694932965       10.0718028399       -3.1843452365
 H       -10.3737362721       11.5298411348       -3.7098756892
 H        -5.6635555059       11.7717801655       -2.5255683277
 H        -5.6907107403       10.0307752242       -3.1462762789
 H        -7.5269594898        9.6835602127       -1.1789067736
 H        -6.6478170233       11.0099277014       -0.5334811619
 H        -8.4629348344        6.2704248975        1.4534095142
 H        -7.2102990733        6.2469906342        0.2672515836
 H        -8.7030966262        6.7585151996       -1.5487175459
 H        -9.9218064590        7.4078114421       -0.4796247621
 H       -14.0285612629        4.8565521548       -0.3877715213
 H       -13.0303864090        5.0509203307        0.9132824213
 H       -14.3146309827        2.4550488828        0.1279868721
 H       -14.8784948565        3.6381902019        1.3459216599
 H       -14.1518121955       -1.0551101266        3.6833788384
 H       -12.7285976564       -1.0966183791        4.7065875543
 H       -12.8273728132       -3.3084467444        3.5487124451
 H       -11.3698496042       -2.2922312926        3.0689370128
 H       -10.8124441993       -1.6548706519       -0.0588185077
 H       -10.4108614922       -2.6331979760       -1.5585322868
 H        -8.1621973065       -2.1075615048       -1.2161383215
 H        -8.1801483614       -2.6634147627        0.4870295046
 H        -6.8555597911       -1.1486022976        2.7810377602
 H        -7.0351188201        0.2140491618        3.7713423541
 H        -5.5792967934       -0.0363158194        2.9223032774
 H        -5.8520079657       -1.3162658314       -0.9287431541
 H        -6.3308389530       -1.8412350640        0.7535007236
 H        -5.1467891468       -0.6112365246        0.4738492746
 H        -7.4044845176        2.0359616583       -0.6413782667
 H        -7.2117771080        0.7642665273       -1.9049483247
 H        -5.7783137548        1.1770524458       -0.9551492754
 H       -13.3410569616       -5.0555629346        1.9669845105
 H       -11.5963046426       -5.1937765350        2.2238905102
 H       -12.4717407014       -5.9509338252        0.9145910820
 H       -13.2574655437       -2.9793835568       -1.0791220765
 H       -13.8175993983       -4.4887011727       -0.4489252461
 H       -12.3322437291       -4.3364506336       -1.4318113794
 H       -14.7848910088        2.5779124999        4.5922709471
 H       -13.0884466799        2.5122952724        4.8638965098
 H       -14.1303309276        1.0373665952        5.1070738438
 H       -15.8028714558        1.8377306146        2.6563335330
 H       -15.4760175847        0.1082673066        3.2099753376
 H       -15.1527626666        0.6049249905        1.5723041656
 H       -12.8869789110        6.1582685423       -2.2653403618
 H       -11.3951672008        7.0811658279       -2.0940099441
 H       -12.3543898204        6.6438436262       -0.6946534875
 H       -10.4495757395        3.5378954659       -2.8802597413
 H        -9.6454445347        5.2270443529       -3.1360657619
 H       -11.2103846702        4.8938214949       -3.6846267439
 H        -4.1086517020        7.7445359196        1.2280442894
 H        -5.2652819797        6.6930145630        0.5060994214
 H        -5.3750767923        7.0673807179        2.2122923828
 H        -6.3755995901       10.7108728915        1.5422211686
 H        -4.8012841112       10.1164960980        1.7887341774
 H        -6.0038308947        9.4838114219        2.8530014215
 H        -6.8228084946        8.5315273833       -4.2801980894
 H        -6.3911970520        9.3998946975       -5.5737403415
 H        -7.8668488809        8.4896851742       -5.6810716011
 H        -8.7614137351       10.5156275793       -6.6547739527
 H        -7.5578358973       11.7277155563       -6.0207710185
 H        -9.2012603040       12.0349180452       -5.7466765800
 Na       -9.8823511153        2.1651278740        0.9911923826
