117

 C       -13.9876985579       -0.6341800620       -6.6775889548
 C       -12.4832965528       -0.4590035353       -6.7838921391
 O       -11.7692919017       -0.8871883498       -5.8852359686
 C       -11.8381174173        0.4112323205       -8.0040650641
 C       -11.9250579099        1.7668227779       -7.2512414643
 O       -13.0257029861        2.3257090409       -7.3174109197
 C       -10.8275796917        2.4030758977       -6.4495845042
 C       -11.1403126564        3.8282617959       -5.8160120587
 C        -9.9415762137        4.2041404643       -4.9396682257
 O        -8.8525900184        3.6502895064       -5.1035889633
 C       -10.1029391076        5.2727251551       -3.7528953436
 C        -9.9767968232        4.7002614878       -2.2968942150
 O       -10.4110627188        5.3177078345       -1.3308203205
 C        -9.1221709284        3.4252587686       -2.0814640882
 C        -7.6028967162        3.6314022259       -2.2395627284
 C        -6.9455877397        2.3221967944       -1.6953028500
 O        -7.6153081376        1.3371064920       -1.3574265961
 C        -5.4055801622        2.2741422936       -1.4868441618
 C        -5.2908230331        3.3239942272       -0.3471729422
 O        -5.3800380689        4.5110725903       -0.5941500545
 C        -4.9861800399        2.8291857634        1.1071465963
 C        -5.3356856868        3.8608722047        2.0829854557
 C        -6.6072542917        4.6562631885        1.8002611457
 O        -7.5865903473        4.2316919339        1.2217030052
 C        -6.6070420776        6.1546345246        2.3870318595
 C        -7.8166107018        6.1414916228        3.3941023741
 O        -9.0043841342        6.1121486547        3.0256290084
 C        -7.4956430440        6.4493395541        4.8670096797
 C        -8.7785157097        6.5188061080        5.6934172310
 C        -8.9908856738        5.1740206372        6.3856757045
 O        -8.1518511933        4.3359224720        6.6648916265
 C       -10.5137317186        4.8640143535        6.9193802859
 C       -11.2418896886        4.1852353668        5.7296071855
 O       -11.9538491740        4.7594143422        4.9758754214
 C       -10.8809258229        2.6486608653        5.4324443844
 C       -11.7649532869        2.0318231682        4.3146928108
 C       -11.6473717316        2.9982760753        3.0483244861
 O       -10.5245344222        3.3783567807        2.7349610584
 C       -12.8788163105        3.3008922132        2.0874864320
 C       -12.9922740930        4.8484287661        1.8333200729
 O       -12.0782638172        5.4684218651        1.3415659660
 C       -14.3073044524        5.6520731913        2.0442074201
 C       -12.5597930980        2.5783452437        0.7549120363
 C       -14.2418035059        2.8638701857        2.6042761980
 C       -10.3467756195        4.0524311779        8.1709252554
 C       -11.2619288791        6.1968982393        7.2855649477
 C        -5.2228499700        6.5541442865        2.9763126137
 C        -6.9032975945        7.1618788506        1.2642008650
 C        -4.9930619762        0.8441429126       -1.1851742650
 C        -4.7031510026        2.7239274068       -2.7561589355
 C        -8.9487048798        6.3082952335       -3.9497999012
 C       -11.3979431801        6.0001159166       -3.8644075353
 C       -10.3544006558        0.0792581282       -8.3422128505
 C       -12.6368762087        0.5180400495       -9.2794211608
 H       -14.6184936133        0.2623354580       -6.9555402148
 H       -14.1206124669       -0.9211333240       -5.6291037643
 H       -14.3329061620       -1.3649861378       -7.4075412259
 H        -9.9033520552        2.4963328725       -7.0450602928
 H       -10.6326835508        1.6044575892       -5.6891547793
 H       -12.0927189437        3.8257235493       -5.2599965677
 H       -11.3360111263        4.6130798983       -6.5721541830
 H        -9.4511602848        2.6067839450       -2.7151996422
 H        -9.2982202127        3.0939754692       -1.0444659394
 H        -7.1526034736        4.4791544795       -1.6934622799
 H        -7.2712905427        3.7115724278       -3.2066614184
 H        -3.9445214648        2.4860404885        1.1985886013
 H        -5.5933149349        1.9537659609        1.3715544504
 H        -4.4920477114        4.5310651998        2.2696984263
 H        -5.5762361471        3.4728321597        3.1067248828
 H        -6.7622122081        7.2280180506        4.9054747429
 H        -6.8418316273        5.6516826785        5.2736190549
 H        -9.6695545617        6.7742651870        5.1208733387
 H        -8.6731739402        7.2008530284        6.5543126018
 H       -10.8899482040        2.0752766040        6.3508502415
 H        -9.7959616521        2.6005879021        5.0980102888
 H       -12.7285426525        2.0145335668        4.6755475703
 H       -11.4923440380        1.0074343648        4.0741358525
 H       -14.2244327042        6.7256891001        1.7712546164
 H       -14.5893416521        5.7966397466        3.0298592317
 H       -15.1500815863        5.1735952296        1.5767891273
 H       -13.1409610603        3.0540038122       -0.0748074153
 H       -12.7927461111        1.5011098885        0.8456265722
 H       -11.4873717485        2.6491731566        0.2994309486
 H       -14.9695923662        2.9198554300        1.7968427399
 H       -14.5396819039        3.4410381356        3.4533118049
 H       -14.2438385733        1.8289922938        2.8277462193
 H       -10.2195581782        4.7139099718        9.0131077054
 H        -9.5073091416        3.3520075305        8.0538329560
 H       -11.1129461395        3.3039041338        8.3247015206
 H       -12.3633746069        6.0305428505        7.3708045007
 H       -11.2138860323        6.9582018810        6.5247578074
 H       -10.8427689904        6.6184869029        8.2527466337
 H        -4.8835105827        5.8610791889        3.8160379894
 H        -5.3281528775        7.5543309545        3.3161964346
 H        -4.3643358285        6.4630977683        2.3487320765
 H        -7.9411698364        6.9583852338        0.8678107658
 H        -6.1194086805        6.9392933067        0.5329239677
 H        -6.8030650344        8.1511825271        1.7388753557
 H        -3.9215154456        0.7903148145       -1.0335062273
 H        -5.1401881231        0.1218059670       -1.9825845609
 H        -5.4224354235        0.4705469069       -0.2466705092
 H        -5.0804983273        3.7204399065       -2.9144150309
 H        -4.9838161438        2.1276214681       -3.6419807612
 H        -3.6201885082        2.8751575733       -2.7419539460
 H        -9.3367298957        7.1203326801       -4.5734097456
 H        -8.1070046815        5.7552942393       -4.3757471772
 H        -8.4792252773        6.8084398101       -3.1229817211
 H       -11.5760114132        6.6009842374       -2.9729539533
 H       -12.2595764995        5.3350771382       -3.9634847642
 H       -11.5518213950        6.4769645389       -4.8082818645
 H       -10.0839387633        0.4864757281       -9.3386770082
 H       -10.2577089920       -0.9684061695       -8.4664347634
 H        -9.7136621861        0.4065939561       -7.5427326218
 H       -13.6485341933        0.9464471796       -9.1327728549
 H       -12.7316292496       -0.4390421357       -9.7813397944
 H       -12.1360169121        1.1991024538       -9.9840187137
 Na       -9.8914036406        5.0589635109        1.0422571506
