117

 C       -14.0376072745       -0.5298863118       -6.2498488502
 C       -12.5762240187       -0.5312919628       -6.6270044222
 O       -11.8606055708       -1.2157107962       -5.9322551804
 C       -11.8691145573        0.3523312523       -7.7850026616
 C       -11.9781054668        1.8576984698       -7.2818636429
 O       -12.9725220627        2.4912721352       -7.5387841546
 C       -10.7484858738        2.5303424703       -6.5744985121
 C       -11.1759610067        3.4898149095       -5.4069082975
 C        -9.8815568793        4.1304614685       -4.7833698113
 O        -8.7650645979        3.7450176389       -5.0274587162
 C       -10.0843175528        5.3595233312       -3.7378423782
 C        -9.9562778838        4.7763505854       -2.3103256264
 O       -10.3587376033        5.4226257756       -1.3205531951
 C        -9.2309569237        3.4412609152       -2.0720734298
 C        -7.6621913276        3.4770212055       -2.1284160254
 C        -7.0466969704        2.1565419877       -1.6385921983
 O        -7.6547848959        1.1633602720       -1.4130942402
 C        -5.4161842490        2.1198035002       -1.3917836083
 C        -5.2304361472        2.9627994731       -0.0087643122
 O        -4.8517519548        4.0962100009       -0.1176818636
 C        -5.6565625116        2.3812893236        1.3278308652
 C        -5.7072091042        3.5635390437        2.3316126668
 C        -6.6218312185        4.6537444235        1.8719732325
 O        -7.4666314998        4.3579114858        1.0236913896
 C        -6.5241040294        6.1533095716        2.2748825848
 C        -7.6924086820        6.3597175393        3.2796493531
 O        -8.8632220148        6.0689856095        2.9010210131
 C        -7.4072891388        6.7735414162        4.7624006614
 C        -8.7107017646        6.7445503902        5.5397293892
 C        -9.0652570497        5.3870786997        6.0949599213
 O        -8.3412399543        4.3649951961        6.0395532975
 C       -10.4792434826        5.2239361374        6.7224216180
 C       -11.2650367901        4.4031399736        5.5933091980
 O       -11.8730677970        5.0072340343        4.7381627139
 C       -11.0569189550        2.9036665323        5.4922082787
 C       -11.8947890253        2.2613262460        4.2985292303
 C       -11.6332521183        3.0232118792        3.0277581837
 O       -10.4755658656        3.2812772900        2.7308932554
 C       -12.9247320807        3.2989661136        2.0357573182
 C       -12.9538960708        4.8978383194        1.8357170055
 O       -11.9390910820        5.4623566430        1.4512603768
 C       -14.1225107153        5.7127567211        2.1698590889
 C       -12.6202754097        2.5911170937        0.6826791635
 C       -14.3138717898        2.8289210471        2.6511055153
 C       -10.2712813306        4.4134735260        8.0997920263
 C       -11.2019053451        6.5442527436        7.0329756643
 C        -5.1548462065        6.4777724104        2.7632433104
 C        -6.7920941306        6.9443993528        0.9545555935
 C        -4.9653604581        0.7029500597       -1.1284552384
 C        -4.6397169014        3.0008559300       -2.4639523590
 C        -9.0095895310        6.5014806152       -4.0084700897
 C       -11.4855645441        5.9476457598       -3.9601763010
 C       -10.4173176355       -0.0397739333       -8.1297537157
 C       -12.6912688084        0.3394270107       -9.1051775634
 H       -14.5148057621        0.4734058371       -6.1597498726
 H       -14.0784624082       -0.9244480612       -5.2762496660
 H       -14.5922248072       -1.0178471567       -7.0009607613
 H       -10.2534454829        3.2111920719       -7.2515607974
 H       -10.0356391109        1.8089795394       -6.1197565451
 H       -11.7096754197        3.0142932475       -4.5327276094
 H       -11.7557577503        4.3127518118       -5.8472778925
 H        -9.5827838721        2.7443175028       -2.8622837195
 H        -9.5629632481        3.1667882968       -1.0075522453
 H        -7.1386734926        4.2822002984       -1.5691993965
 H        -7.3171416993        3.5479955445       -3.1148810756
 H        -4.9760450341        1.7118610067        1.7867716187
 H        -6.6430198168        1.8824413532        1.2679696004
 H        -4.6911667441        3.9132391634        2.6217096907
 H        -6.0381228880        3.1170109469        3.3126456201
 H        -6.8403153029        7.7132643391        4.8709395501
 H        -6.6325184908        6.0182053590        5.1276534290
 H        -9.5829792618        7.0450021781        4.9407631073
 H        -8.6115873444        7.4228484039        6.4041296307
 H       -11.3692435048        2.4594312449        6.4294048005
 H        -9.9518409101        2.6968242501        5.4123511465
 H       -12.9100559362        2.2497338338        4.5749730165
 H       -11.5309192797        1.2457038398        4.2213813524
 H       -13.9885246216        6.7995305235        2.0426574963
 H       -14.4418465420        5.6199030638        3.2013079633
 H       -15.0194053338        5.4088607646        1.6131223957
 H       -13.5058780581        2.5026548941        0.0250284969
 H       -12.2725869668        1.5089839062        0.7098996366
 H       -11.9011312515        3.2700832988        0.0957428141
 H       -15.1598317989        2.8166069352        1.9425307005
 H       -14.5714610283        3.4707593405        3.5452047149
 H       -14.2615940880        1.8020921125        2.9861359332
 H       -10.0325826490        5.0854990211        8.8578326495
 H        -9.5657232585        3.5565466366        8.0422392557
 H       -11.2132055106        4.0247005451        8.4233769693
 H       -11.8940976930        6.4909966152        7.8747463204
 H       -11.6854184337        6.9203607872        6.1836534244
 H       -10.4463690025        7.2646877113        7.3636773402
 H        -4.8781691836        5.9131794721        3.6800512814
 H        -4.9690775017        7.5148209102        3.0625847912
 H        -4.4136107991        6.2546203791        1.9686133685
 H        -7.6325862915        6.4905436616        0.4879235990
 H        -5.9495148951        6.6441850888        0.3838761053
 H        -6.7680997665        8.0048060884        1.1087836290
 H        -4.0784072621        0.6200058899       -0.4586504470
 H        -4.7329157652        0.1413064764       -2.0456824821
 H        -5.7929058420        0.0617488293       -0.7106344191
 H        -4.9953200063        3.9953551510       -2.4776401705
 H        -4.8411670713        2.6366212839       -3.5227110645
 H        -3.5908060051        3.0622929231       -2.2831472019
 H        -8.5389822374        6.4086837326       -5.0024464428
 H        -8.1293370478        6.4739187816       -3.3556291037
 H        -9.4030621198        7.5034280634       -3.8945409993
 H       -11.6063980247        6.7801765694       -3.2524839436
 H       -12.3630832162        5.2797978324       -3.7244046814
 H       -11.6769048562        6.3957218764       -4.9314394301
 H        -9.8417056419        0.8855745416       -8.4224948893
 H       -10.4265733633       -0.7127937909       -8.9490995090
 H        -9.9856972426       -0.4218225714       -7.2098759426
 H       -13.7294525516        0.7642166395       -8.9484735161
 H       -12.8180282166       -0.6982948580       -9.5059596062
 H       -12.1739741789        1.0271145542       -9.8863739993
 Na       -9.7962707337        4.6766808591        0.9216502032
