117

 C       -14.0478845807       -0.2654618109       -6.1346583288
 C       -12.5563771001       -0.4206499317       -6.5306637427
 O       -11.8774213424       -1.2031043276       -5.9297030948
 C       -11.9076120991        0.4430638861       -7.7690576626
 C       -11.8392629798        1.8573458121       -7.2292038085
 O       -12.8703255997        2.5357937343       -7.2195411354
 C       -10.6781080485        2.3380938720       -6.3317562025
 C       -11.1194106517        3.3812815268       -5.3131699731
 C        -9.9010930001        4.1448997469       -4.7839359436
 O        -8.8165830524        3.9265792779       -5.3120184529
 C       -10.0960697515        5.1878748108       -3.6082173121
 C        -9.7948233232        4.6871714041       -2.2179183155
 O        -9.9188261003        5.4088438806       -1.2550434668
 C        -9.2008892442        3.2540576133       -2.0467311334
 C        -7.6758188584        3.3569059209       -1.8789944829
 C        -6.9725817286        2.0945650759       -1.5635047110
 O        -7.6483624075        1.1405343450       -1.3129795948
 C        -5.3815492685        2.0296711112       -1.3396857537
 C        -5.0618421165        2.7827800599        0.0651021820
 O        -4.3140001092        3.6980931795        0.1113350240
 C        -5.6770257740        2.2189331125        1.4082204435
 C        -5.9949601397        3.3008954727        2.3718108555
 C        -6.8674154448        4.4018386837        1.8030550636
 O        -7.7823424159        4.0874013672        1.0181791904
 C        -6.6405032921        5.9658829266        2.1477991868
 C        -7.8260729587        6.3277744378        3.1338002913
 O        -9.0092304890        6.2128906068        2.7688811593
 C        -7.4670928027        6.9917746892        4.4423664000
 C        -8.6035559661        7.0789595945        5.4031079456
 C        -9.0059307110        5.6618599448        5.8318650309
 O        -8.3750371712        4.6490477504        5.4535627445
 C       -10.4552549518        5.4180454425        6.5005438569
 C       -11.2586154959        4.5587525596        5.5055190854
 O       -12.1298687593        5.0761665782        4.8728275835
 C       -10.9970014375        3.0798473251        5.4684924333
 C       -11.9582348328        2.4699846308        4.4030369871
 C       -11.6428673793        2.9896672584        3.0146390045
 O       -10.4766304736        3.1349457332        2.5999204304
 C       -12.8781920350        3.3741453532        2.0476106619
 C       -12.9617476452        4.9446590456        1.9375310167
 O       -11.9924462207        5.5355963491        1.4916917272
 C       -14.1173537649        5.8031892397        2.4882685604
 C       -12.5554540794        2.8450604933        0.6429726742
 C       -14.2086825985        2.7980803201        2.4894878518
 C       -10.2667454495        4.5965351009        7.7930678346
 C       -11.2937275002        6.7236691453        6.8151914032
 C        -5.1967611689        6.2334722793        2.7601791576
 C        -6.8102144545        6.8805842631        0.9177208832
 C        -4.9314828466        0.5858648670       -1.2721925945
 C        -4.6661382658        2.8614397294       -2.4873674578
 C        -9.0722044661        6.3117699181       -4.0050577140
 C       -11.4756145813        5.7825661837       -3.6077359668
 C       -10.4340912302       -0.1150332943       -8.0297271441
 C       -12.8037211494        0.1729799185       -9.0037927567
 H       -14.4898360270        0.7609772739       -6.0344392915
 H       -14.2759870772       -0.7456293989       -5.1796306938
 H       -14.5398081918       -0.8132341124       -6.9611844613
 H        -9.9939738633        2.8370206465       -7.0206423574
 H       -10.1836567588        1.5951792568       -5.7406872904
 H       -11.5362838015        2.8803829923       -4.4781511760
 H       -11.7909871182        4.0535428672       -5.8940501993
 H        -9.5193057655        2.6162342177       -2.8949681330
 H        -9.7155815534        2.9296859190       -1.1597346926
 H        -7.3596411657        4.1956286670       -1.1299453843
 H        -7.2610361044        3.6350793671       -2.8320736840
 H        -5.0300550178        1.4529537520        1.9146206838
 H        -6.6283637596        1.8053822709        1.1564257393
 H        -5.1099107264        3.6654908994        2.8185719024
 H        -6.5337845084        2.8628097746        3.2316106189
 H        -6.8701789756        7.8954997060        4.2749862246
 H        -6.7842691362        6.2148363827        4.8541649627
 H        -9.5137518878        7.3664763343        4.8923439696
 H        -8.4215154225        7.7123139594        6.2784201771
 H       -11.0828225440        2.7062730829        6.4542856075
 H        -9.9346215823        2.9867880205        5.1591008030
 H       -12.9465962717        2.8432990535        4.6317385479
 H       -11.9433873966        1.3012658761        4.4053435374
 H       -14.0732996421        6.8769908898        2.1522816719
 H       -14.2402105307        5.7661449973        3.5314337140
 H       -15.1262559015        5.5124659628        2.1593001642
 H       -13.1778781405        3.2959453640       -0.0443350080
 H       -12.7896366781        1.8484731535        0.5495764215
 H       -11.5206402698        2.9694866994        0.3682949842
 H       -14.9811025723        3.1063010217        1.7617952162
 H       -14.5694193255        3.1992641867        3.4149508101
 H       -14.1364370646        1.7357885953        2.6576520027
 H        -9.7066095169        5.0586545711        8.6453184662
 H        -9.7129121079        3.6443782514        7.5911981994
 H       -11.2981197959        4.5001476735        8.2077261983
 H       -12.2806136705        6.4393853181        7.2110327849
 H       -11.3518268496        7.4227580348        6.0116278948
 H       -10.8125963617        7.2650053754        7.6691885677
 H        -5.0514510373        5.5711503769        3.6596409559
 H        -4.9524780947        7.1811044653        3.1264294471
 H        -4.4801723142        6.1033526210        1.9949560901
 H        -7.8016576729        6.6534068093        0.4467187862
 H        -5.9689380103        6.7795870946        0.2405897712
 H        -6.7401486207        7.8577671140        1.3881060555
 H        -3.8937594513        0.5784859914       -1.4294529704
 H        -5.4187398299       -0.0459284962       -1.9826164754
 H        -5.1136179288        0.1112361573       -0.3317130596
 H        -5.0363778043        3.8742816719       -2.4001570311
 H        -4.8312834814        2.5140792884       -3.5295953244
 H        -3.5750526062        2.8403120381       -2.3171600923
 H        -9.4118865540        6.8743690627       -4.8795262771
 H        -8.1532280551        6.0099102572       -4.4925635561
 H        -8.9072460064        6.9959572800       -3.1974502198
 H       -11.6378336270        6.6110257835       -2.9311053172
 H       -12.2740182317        5.0818098739       -3.4686375607
 H       -11.5342576719        6.3448775034       -4.5241852963
 H       -10.0246767938        0.3964554181       -8.9216293891
 H       -10.5301401909       -1.1784579369       -8.1447703270
 H        -9.8192323653        0.0903713273       -7.1755274558
 H       -13.7967518192        0.3798718240       -8.7390803226
 H       -12.7488185477       -0.8357464010       -9.1957031574
 H       -12.5349773823        0.6908714094       -9.8810264852
 Na       -9.7952289922        4.9769645995        0.9654610371
