117

 C       -10.4398537780       10.6870935924       -2.9919081862
 C        -9.5435475866        9.6888339860       -3.8435852902
 O        -9.5401691701        8.4788866879       -3.5689625496
 C        -8.2116338918       10.1858436227       -4.6641367616
 C        -7.5643428187       11.1619686386       -3.5484892429
 O        -8.1121301138       12.2107534992       -3.3159842246
 C        -6.3380935380       10.7667572465       -2.8272033582
 C        -6.7271623965       10.2914482847       -1.3316525569
 C        -5.7502678020        9.1978849499       -0.7474008006
 O        -4.8526883888        8.6290296868       -1.3582123068
 C        -6.0668733674        8.7500928197        0.7998183683
 C        -7.6340279141        8.2501628550        0.7915552480
 O        -8.5295279245        9.0633588111        0.9988475469
 C        -7.9950016113        6.7154593967        0.4895927520
 C        -9.1461563623        6.7503516809       -0.5132746110
 C        -9.8334943049        5.3555524929       -0.6068625613
 O        -9.4182831892        4.4454331316        0.0884921559
 C       -11.1349527028        5.0051514812       -1.4987764904
 C       -11.8729977627        3.8567518005       -0.7038716052
 O       -11.4947580713        2.6564068918       -0.8878047198
 C       -13.0659850435        4.1974554083        0.1215022012
 C       -13.8499778461        3.0707804225        0.9490473052
 C       -13.0954119402        2.5323043774        2.1131453329
 O       -12.0039757578        3.0139980515        2.3255222247
 C       -13.6752622050        1.4098297997        3.0131770735
 C       -12.6300806013        0.2259760097        2.9220650977
 O       -11.5457242518        0.2875977251        2.3855417723
 C       -13.0587819662       -1.0329920966        3.6917305735
 C       -12.4101022038       -2.3258132889        3.1005510447
 C       -12.7134819159       -2.4186534460        1.5720016481
 O       -13.4124195831       -1.6634610771        0.9936483329
 C       -12.2155300479       -3.7698274151        0.8446246667
 C       -10.6250462630       -3.5191820857        0.5988922575
 O        -9.8357419565       -4.1225362925        1.2603505727
 C       -10.2446507647       -2.4707335533       -0.5451758014
 C        -8.7813459885       -2.0550782164       -0.2937196848
 C        -8.5309914284       -0.5316678830       -0.1761966012
 O        -9.5163006145        0.2044392641       -0.2377769113
 C        -7.1649231557        0.0100459702        0.2645705903
 C        -7.2712772509        0.6153028038        1.6782564439
 O        -7.8624327503        1.7027708808        1.8764113191
 C        -6.6364987825       -0.1356276846        2.7773488657
 C        -6.0293849649       -1.1048332053        0.1599300780
 C        -6.8383955543        1.1318097139       -0.8712645404
 C       -12.3714714901       -5.0208828301        1.6572311454
 C       -13.1111628294       -3.8965594472       -0.4571042040
 C       -13.7094610538        1.9639378643        4.4407038789
 C       -15.0626830006        0.8377899975        2.5767041658
 C       -11.9161493302        6.3174578500       -1.8333822224
 C       -10.6328364289        4.3660984015       -2.8256224266
 C        -5.1532835413        7.6415229528        1.3123475857
 C        -5.8787259556        9.9719776730        1.7999010808
 C        -7.3801350163        8.9900392869       -5.0523673386
 C        -8.5103506515       11.1613105079       -5.8464316662
 H       -10.3573829972       10.4696067084       -1.9157426553
 H       -11.4436295593       10.3409574114       -3.2998540458
 H       -10.1964292427       11.6613857028       -3.2333490133
 H        -5.7651414101       11.6977760809       -2.7324025280
 H        -5.8691736625        9.8856436839       -3.3628518363
 H        -7.7289468676        9.8081932596       -1.2012541522
 H        -6.7396953661       11.1640273113       -0.6680486987
 H        -8.4682093729        6.2862991710        1.4355404740
 H        -7.1621843756        6.0601519339        0.1642357111
 H        -8.7290736464        7.0132363989       -1.5214192435
 H        -9.8659132115        7.5968070764       -0.2389610119
 H       -13.8856549723        4.6043215031       -0.5255911975
 H       -13.0651465394        5.0306866120        0.8303935349
 H       -14.0652010700        2.3001511170        0.2657610963
 H       -14.8299452791        3.4830424646        1.3111176983
 H       -14.1431929764       -1.0842466992        3.4594215624
 H       -12.8673026395       -1.0347695831        4.7760119708
 H       -12.9080716641       -3.2201625555        3.5946707341
 H       -11.3624489142       -2.2813191337        3.3683865068
 H       -10.9225347378       -1.5979636557       -0.4765801347
 H       -10.3037005769       -3.0213484572       -1.4820182133
 H        -8.0798234500       -2.5893939688       -0.9754972131
 H        -8.4822491527       -2.3615929036        0.6649092531
 H        -6.7955129931       -1.2218002255        2.7273639674
 H        -6.8050442399        0.1598579931        3.8000057218
 H        -5.5390307650       -0.0771201787        2.6815962602
 H        -5.9355509266       -1.3810576291       -0.7938617222
 H        -6.0651852145       -1.9673903039        0.8381996865
 H        -5.1099062504       -0.5290908892        0.2812821760
 H        -7.5175594381        1.9399099164       -0.5032681200
 H        -7.1724001933        0.8847851973       -1.9013893351
 H        -5.7486807083        1.3687181629       -0.9146849986
 H       -13.3857901727       -5.1910645806        1.9503792180
 H       -11.6906117204       -5.0105881309        2.5088987560
 H       -12.1466634098       -5.8686859026        1.0745720071
 H       -13.7208244499       -2.9929203290       -0.7437567593
 H       -13.7752412172       -4.7864295406       -0.4895082544
 H       -12.4849060983       -3.9629749453       -1.3386478367
 H       -14.5429336744        2.6525322040        4.5045428123
 H       -12.8566279686        2.6577984128        4.5071804280
 H       -13.8040816176        1.2689897552        5.2893052629
 H       -15.6856732746        1.7099242400        2.6876783404
 H       -15.3181555188        0.1066301750        3.3520610542
 H       -15.2176495847        0.4238918157        1.6552741269
 H       -12.7799670658        6.2140351484       -2.4155327980
 H       -11.1983462217        7.0373828582       -2.2572427187
 H       -12.2958993226        6.7352122007       -0.8671360469
 H       -10.5350902429        3.2890241365       -2.7565629741
 H        -9.7100272793        4.8943779247       -3.1645511560
 H       -11.3500674452        4.6084632950       -3.6418171339
 H        -4.1547075176        7.8668516144        1.6456808410
 H        -5.0694036655        6.9375675665        0.5011579906
 H        -5.6364347201        7.0755089382        2.1037259585
 H        -6.2325920082       10.8776530612        1.3235320995
 H        -4.8050615089       10.1460058621        1.9922536699
 H        -6.2964945705        9.6986737213        2.7505451254
 H        -7.1678036805        8.1860393006       -4.3501607652
 H        -6.3338951472        9.2418758930       -5.3459705055
 H        -7.8424875078        8.4929401330       -5.8393553539
 H        -8.7299556606       10.6391933426       -6.7445935014
 H        -7.6935467851       11.8719110638       -5.8732345223
 H        -9.3543306155       11.8346416678       -5.5259205270
 Na      -10.0256760997        2.2321135727        1.0335047092
