117

 C       -14.1513017645       -0.4096684853       -6.0496380827
 C       -12.6749420601       -0.5031659335       -6.3977766025
 O       -11.9092234732       -1.1862013447       -5.7611249042
 C       -11.9568813751        0.3740252975       -7.5788571365
 C       -11.8377627718        1.7932853416       -6.9028568020
 O       -12.6805816785        2.6406779596       -7.0447106828
 C       -10.6170461972        2.0877543408       -5.9815423852
 C       -10.9659596454        3.3906790766       -5.1796063229
 C        -9.7198175587        4.1526075974       -4.6080750071
 O        -8.6484259682        4.0131854904       -5.1313510513
 C        -9.9641626534        5.2365984800       -3.5086389409
 C        -9.5319352815        4.6746083472       -2.1128690091
 O        -9.8393959060        5.2812123378       -1.0986032213
 C        -9.0000635390        3.2125128792       -2.0120958694
 C        -7.4967847639        3.1679922448       -2.2768526740
 C        -6.8477168344        1.9397632525       -1.4837481144
 O        -7.5208034639        1.1942344305       -0.8572693153
 C        -5.2721504451        1.8209187854       -1.3780188397
 C        -4.9735856241        2.4404883300        0.0511847325
 O        -4.1702976832        3.3268126478        0.2289480642
 C        -5.7515833073        1.9146730560        1.3342657982
 C        -5.9800128747        3.0108561261        2.4146882497
 C        -6.8997370079        4.1243776032        1.8481102899
 O        -7.9200982558        3.7901841252        1.2993461038
 C        -6.6756958438        5.6683207886        2.0067740727
 C        -7.8334028985        6.2972837605        2.9392631611
 O        -8.9827231207        6.3350777114        2.5138301926
 C        -7.4248734420        7.2072309060        4.0903565677
 C        -8.6030403549        7.3744172868        5.0278527527
 C        -9.1446962674        5.9786770671        5.4123102700
 O        -8.4783237669        4.9673784528        5.1131641746
 C       -10.4444253189        5.7102850658        6.3135245597
 C       -11.3779330957        4.7229100517        5.5513937598
 O       -12.4677866643        5.1244355607        5.1925253001
 C       -10.9321657613        3.3185171263        5.3087619911
 C       -11.7693627117        2.6059623942        4.2160472416
 C       -11.6741846152        3.2116202112        2.8083322919
 O       -10.5604774504        3.4433138143        2.4333746056
 C       -12.9625186960        3.5104981331        1.8633720201
 C       -13.1380473159        5.1475525529        2.0402857897
 O       -12.2995014005        5.8780519993        1.6238949111
 C       -14.3447639370        5.7171920651        2.7305812287
 C       -12.5761659204        3.2424557714        0.3895746092
 C       -14.3157951116        2.7793863601        2.1754734186
 C        -9.9838783685        5.0611014348        7.6537425751
 C       -11.2532289799        6.9631076538        6.6818467075
 C        -5.3432222192        5.9119785032        2.6416729838
 C        -6.7503318965        6.4286005563        0.6279901796
 C        -4.7490614660        0.3288818491       -1.2440351868
 C        -4.4780793137        2.5821679118       -2.4737508346
 C        -9.1888374995        6.5446135958       -3.8814702682
 C       -11.4926890051        5.6090192706       -3.4384218470
 C       -10.5932041196       -0.2908333838       -8.0018054956
 C       -12.9329325876        0.3135643250       -8.8170484165
 H       -14.8017703625        0.3419820844       -6.6250662171
 H       -14.2769266896       -0.2421601565       -4.9767587295
 H       -14.4306426897       -1.4642441451       -6.1267875378
 H        -9.7526301144        2.3222977827       -6.6077639991
 H       -10.4094801678        1.2016960608       -5.3669241516
 H       -11.6354770976        3.1833085837       -4.3748285764
 H       -11.4364773394        3.9888710502       -6.0034888483
 H        -9.5391740814        2.5986879677       -2.6747010187
 H        -9.2400078614        2.8206521957       -1.0634197435
 H        -6.9821402381        4.1306040152       -1.9015893361
 H        -7.3474352848        3.0558758225       -3.3082647382
 H        -5.0444211383        1.1578519438        1.7795342518
 H        -6.7398806352        1.4666243628        1.0921424492
 H        -5.0506697401        3.3935472336        2.7468885269
 H        -6.5089283989        2.5409701559        3.2489759529
 H        -7.1062518972        8.1550459694        3.7080739361
 H        -6.6852195765        6.6533741359        4.6953626580
 H        -9.4074722395        7.9636628758        4.5906779271
 H        -8.2583227054        7.9041047298        5.9429130361
 H       -11.0412615096        2.7746859973        6.2233208892
 H        -9.8385854619        3.3370083989        5.0629684798
 H       -12.7846001982        2.6486340583        4.5879863720
 H       -11.4195886447        1.5095249193        4.1936633820
 H       -14.3044572220        6.7788660388        2.8851710154
 H       -14.7410000827        5.1694987442        3.5640178685
 H       -15.2352001401        5.6608855022        2.0896974772
 H       -13.4310046174        3.4170075003       -0.2226093573
 H       -12.1731513499        2.2123303517        0.2356014529
 H       -11.7145173715        3.8551553459        0.1211923877
 H       -15.0937169054        3.4170477607        1.7636421342
 H       -14.4953173978        2.6742805090        3.2509080385
 H       -14.2994324179        1.8035506380        1.7534349010
 H        -9.3728167096        5.7287446329        8.2450186310
 H        -9.2119453800        4.2789038381        7.4106619615
 H       -10.8434322390        4.7264038497        8.2180018468
 H       -12.0259125627        6.7795205992        7.4736638457
 H       -11.7673073073        7.3270515007        5.8094335824
 H       -10.5176655636        7.7900446725        6.9095674012
 H        -5.2608407924        5.2751154115        3.5373300438
 H        -5.0541458746        6.9229177921        2.8580162054
 H        -4.5805020006        5.4872795057        1.9553559098
 H        -7.8133255158        6.4201561079        0.2943904554
 H        -6.0064611660        5.9763482898       -0.0438918244
 H        -6.4804009895        7.4830556326        0.8663369100
 H        -3.7993239223        0.2989582918       -0.6944083875
 H        -4.4988153230        0.0038191363       -2.2625067345
 H        -5.4591391169       -0.3948623567       -0.7920265618
 H        -4.9243909238        3.5379136840       -2.4809657753
 H        -4.7276221558        2.0699042942       -3.4743920826
 H        -3.4012065532        2.6168606559       -2.3712191347
 H        -9.7115604575        7.4705786429       -4.0839841279
 H        -8.5117252305        6.5193943245       -4.7464887647
 H        -8.5454976198        6.7509743911       -3.0383716624
 H       -11.7285285444        6.3876035044       -2.6822663007
 H       -12.0908653624        4.7033095170       -3.2076108617
 H       -11.7865883839        6.1017265974       -4.3624968336
 H        -9.9308501534        0.5105120146       -8.4052085048
 H       -10.8817579432       -1.0001050944       -8.7277188942
 H       -10.1431682250       -0.8491570386       -7.2002365670
 H       -13.6721014233        1.1289433583       -8.8581859297
 H       -13.4364184244       -0.6433891359       -8.8342386509
 H       -12.3117079588        0.2726141472       -9.7519620054
 Na      -10.0398421101        5.0746373463        1.0434572502
