117

 C       -14.1772917085       -0.7441930279       -6.0844943145
 C       -12.6586449428       -0.4867800292       -6.2450621825
 O       -11.9709946626       -1.0928576283       -5.4818065625
 C       -12.0200578896        0.3417660432       -7.3599127414
 C       -11.8395936552        1.7921972279       -6.8463941441
 O       -12.6552808026        2.6731921888       -7.1227450389
 C       -10.6148332446        2.1174618222       -6.0098081642
 C       -10.9359460570        3.2244651222       -4.9815797182
 C        -9.6492580973        3.9970773193       -4.6203221089
 O        -8.5480083018        3.6887287615       -5.0259319452
 C        -9.8847660875        5.2047378091       -3.5818934187
 C        -9.5310198859        4.7015201731       -2.1558078110
 O        -9.6720408473        5.4382157499       -1.2228249254
 C        -8.9102513308        3.3037970880       -1.9531118041
 C        -7.4106174447        3.1062541996       -2.2760030787
 C        -6.8464576318        1.9356992603       -1.5275487247
 O        -7.6076989242        1.0983613277       -1.1437295431
 C        -5.2834357852        1.6750356621       -1.2212162906
 C        -5.0235678505        2.4384556165        0.1493694692
 O        -4.3324655826        3.4188865148        0.1835759603
 C        -5.7519045071        1.9145282658        1.4914355940
 C        -5.9610566406        3.0363501283        2.5624037050
 C        -6.9542778421        4.0367919958        2.0363251141
 O        -8.0158295736        3.8015911519        1.4781995220
 C        -6.5475898878        5.7058491041        1.9410401553
 C        -7.6663005550        6.4962555607        2.6664754950
 O        -8.8251570814        6.5047554762        2.2228626271
 C        -7.3916481690        7.2809043362        3.8864501260
 C        -8.6929681446        7.2472765816        4.7476158666
 C        -9.0935385768        5.9252952476        5.2503465340
 O        -8.5210470326        4.8727671604        4.9327527714
 C       -10.3888820828        5.8201751019        6.1908328771
 C       -11.4680038729        4.8747224886        5.5865938652
 O       -12.5641287713        5.3228495419        5.3431858946
 C       -11.0752180578        3.4669657900        5.2444651135
 C       -12.0875692633        2.7883391434        4.2850290804
 C       -11.7798212031        3.2234974074        2.8454919797
 O       -10.6474386099        3.3624562691        2.4419504820
 C       -13.0545245517        3.5920418930        1.8822095378
 C       -13.2172937665        5.1711469507        2.0555618979
 O       -12.2667540420        5.8845727824        1.9136226723
 C       -14.5030985405        5.7630712740        2.6096350275
 C       -12.6733282506        3.3540380729        0.3959911109
 C       -14.3215821134        2.7656653738        2.2628462335
 C        -9.9163071478        5.2504592635        7.5362749092
 C       -11.0234117425        7.2066244400        6.4873435531
 C        -5.1445311153        5.9172265597        2.5400435550
 C        -6.5559175039        5.9711019885        0.4091024340
 C        -5.0647193388        0.2128738199       -1.2395384501
 C        -4.3627567400        2.4080087206       -2.3020480079
 C        -9.0275094674        6.4537566530       -3.8855438702
 C       -11.3655278891        5.5663870093       -3.5407964611
 C       -10.6284033135       -0.2600941180       -7.7142017986
 C       -12.9618962880        0.5151355420       -8.6261508405
 H       -14.7094797988        0.1324514633       -6.5050064852
 H       -14.3948950896       -0.8525150296       -5.0676307021
 H       -14.4887042813       -1.6435214671       -6.5698556920
 H        -9.8140040100        2.4941591512       -6.7383403790
 H       -10.1510789846        1.2812030640       -5.5127880604
 H       -11.3073103014        2.7948495143       -4.0495150014
 H       -11.6251083289        4.0310943074       -5.2851868538
 H        -9.4303680629        2.4568306105       -2.5079975406
 H        -9.1566628978        3.0117722805       -0.9212157024
 H        -6.7943462932        3.9945845573       -2.1723908534
 H        -7.3683180491        2.7399994481       -3.2944274445
 H        -5.1904797484        1.1113511759        2.0320056260
 H        -6.6904904604        1.5293405039        1.1456954694
 H        -5.0301516084        3.5329901849        2.8205136775
 H        -6.4891679099        2.5337111501        3.4238348671
 H        -7.1724348926        8.3228768750        3.6048521209
 H        -6.6904838622        6.7264720076        4.5066005079
 H        -9.5665532915        7.6636038309        4.2248124869
 H        -8.6088694761        7.8635168350        5.6691551587
 H       -10.9203802540        2.9028116465        6.1909907913
 H       -10.0954768397        3.5339379592        4.7319631118
 H       -12.9880453524        3.2499401075        4.4763779674
 H       -12.1870566494        1.7285057448        4.5063283197
 H       -14.3401251749        6.8578549712        2.7149719004
 H       -14.7357306705        5.3659281185        3.5556483788
 H       -15.5074461131        5.6729658977        2.1978833237
 H       -13.5549564010        3.0269521301       -0.1637669308
 H       -11.7793966075        2.6552043415        0.3713835589
 H       -12.3947602493        4.3634717371       -0.0484901175
 H       -14.9343822368        2.6412709917        1.3199150180
 H       -14.8477631406        3.3155683077        3.0120260084
 H       -14.0820316214        1.7237648281        2.5563742684
 H        -9.1265561235        5.9363338817        7.8746800779
 H        -9.4691845215        4.2576000970        7.3886015158
 H       -10.6930430677        5.1691668575        8.2721097576
 H       -11.9964713218        7.0260268238        6.8794809581
 H       -11.1945103196        7.7456826891        5.6072964021
 H       -10.4232700777        7.7747217640        7.1806094023
 H        -5.2519823401        5.5579231826        3.6244235415
 H        -4.9266271729        6.9537157389        2.5555706716
 H        -4.3595854708        5.2690637540        2.1855945895
 H        -7.4854120794        5.6298906195       -0.0411872641
 H        -5.6918493623        5.4492488690        0.1246399425
 H        -6.4602216537        6.9987928124        0.2031356182
 H        -4.0322598050        0.0574252470       -0.9857926728
 H        -5.2451978922       -0.1688448727       -2.2566246638
 H        -5.6578942330       -0.2825885032       -0.4764572456
 H        -4.6173470472        3.4487458127       -2.3549265931
 H        -4.4433057811        1.8954994636       -3.2787097717
 H        -3.3432430448        2.3858219628       -1.9441552038
 H        -9.0946707824        6.5893340570       -4.9762445229
 H        -7.9606099394        6.4086058914       -3.6455838765
 H        -9.2652449238        7.4184128555       -3.4840949969
 H       -11.5059549233        6.4132491629       -2.8233024831
 H       -12.0055873034        4.7793759549       -3.2264288637
 H       -11.7242251254        5.8445863159       -4.5499491457
 H       -10.2175075403        0.3167956128       -8.5695161354
 H       -10.7654483725       -1.3066277053       -7.9976017086
 H       -10.0060025700       -0.2074361820       -6.8376669017
 H       -14.0144529515        0.7468229851       -8.3658357411
 H       -12.9612469281       -0.3817249521       -9.2170860441
 H       -12.6174922285        1.3896860032       -9.2109936236
 Na      -10.0240049497        5.0017183913        0.9893629616
