117

 C       -14.1795440703       -0.8595998864       -6.1913265568
 C       -12.6427592019       -0.5510197355       -6.1857805891
 O       -11.9670979342       -0.6219096570       -5.1968672327
 C       -12.0848094050        0.2226337125       -7.4956135370
 C       -11.8537372673        1.6166928270       -6.8882052975
 O       -12.8177540048        2.3833252802       -7.0349906365
 C       -10.6759179859        1.9167450489       -5.8391885650
 C       -10.8389354405        3.1109148432       -5.0430372829
 C        -9.6158279773        3.9644672466       -4.6185727972
 O        -8.4881441442        3.6246197504       -4.9555556690
 C        -9.7539864263        5.2106643041       -3.6235848749
 C        -9.4581510390        4.8175073553       -2.1327762355
 O        -9.6935177313        5.6231925441       -1.2988244112
 C        -8.9023197373        3.4365171685       -1.6913235104
 C        -7.4003762935        3.2205666363       -1.8628591683
 C        -6.9596053258        1.8351767932       -1.4842262822
 O        -7.7305963821        0.9108723161       -1.4981187111
 C        -5.4214143552        1.6705743099       -1.1029706302
 C        -5.1296064330        2.4362739840        0.2004614525
 O        -4.6120046728        3.5023704893        0.1426735014
 C        -5.7891453973        1.8940230024        1.5477060812
 C        -5.9499483543        3.0447348755        2.4386026763
 C        -6.9126822385        4.1099916027        1.9520639199
 O        -8.0446665312        3.7286488722        1.6188113954
 C        -6.4119399055        5.6079511268        1.7919039646
 C        -7.5425044133        6.5126553378        2.4185336977
 O        -8.5600814328        6.7429720413        1.7733500161
 C        -7.2669975597        7.2361786440        3.8485222581
 C        -8.5904137256        7.3358416523        4.6054154163
 C        -9.1382577257        6.0161781437        5.1513668075
 O        -8.5454225370        5.0011295579        4.8387810204
 C       -10.3551601689        5.9588057290        6.1340717502
 C       -11.5547574220        5.0745784783        5.5305611984
 O       -12.6045345796        5.5734365972        5.2101762309
 C       -11.3177246783        3.5147909809        5.3662332356
 C       -12.3519810922        2.8022225614        4.4059933542
 C       -11.9749706878        3.1387944461        3.0117255969
 O       -10.8358845626        3.0190344595        2.5926794436
 C       -13.1036833618        3.6025009097        1.9688542879
 C       -13.1414039182        5.1792903705        2.1083169783
 O       -12.1500589268        5.7994523681        1.7764890510
 C       -14.3966200774        5.9359023596        2.5641773485
 C       -12.7381212904        3.2256275722        0.4699505970
 C       -14.4680339841        2.9704927021        2.3024466226
 C        -9.8279953500        5.2285369700        7.4011137343
 C       -10.9257115391        7.3645639836        6.4756666266
 C        -4.9673558845        5.8301875000        2.4248823484
 C        -6.3837621784        5.9996927512        0.3180793527
 C        -5.0759642565        0.1909035314       -0.7856514461
 C        -4.6121060067        2.2083282252       -2.2404946604
 C        -8.5992915271        6.1566496275       -4.0864498653
 C       -11.0764851323        5.9685726292       -3.5377375529
 C       -10.6355525436       -0.4384127427       -7.8440425937
 C       -13.0952139080        0.2533516814       -8.6427907723
 H       -14.5544964432       -0.0261292313       -5.5607097129
 H       -14.3037662628       -1.8156809116       -5.6615771432
 H       -14.7531119506       -0.8608493678       -7.1373935693
 H        -9.7046268693        1.9595187419       -6.3496364272
 H       -10.6361433452        1.0148828588       -5.2810910229
 H       -11.3755677278        2.9395270658       -4.0644825001
 H       -11.5127211559        3.8223894561       -5.4915011349
 H        -9.3658025620        2.6463006973       -2.3758904198
 H        -9.3008674543        3.2608893596       -0.6611862346
 H        -6.8366156541        3.9359750565       -1.3277407400
 H        -7.1041516840        3.3244904150       -2.9847887747
 H        -5.1722383556        1.1260750354        1.9835210543
 H        -6.7417031076        1.4461009321        1.3312769774
 H        -4.9775383732        3.5520032450        2.4100967074
 H        -6.2441188191        2.6988098258        3.4260885440
 H        -6.8313564844        8.2536407692        3.7945192281
 H        -6.7937222394        6.4876486667        4.4565490622
 H        -9.3064921695        7.9616454812        4.0758093830
 H        -8.4167307499        7.9122297160        5.5152383563
 H       -11.4902566299        3.1315695877        6.3889859968
 H       -10.3046854754        3.3454869709        5.0777402329
 H       -13.3647701791        3.1231029708        4.7575563792
 H       -12.3738660475        1.6834894727        4.5079160295
 H       -14.4251395692        6.9759046052        2.1187341775
 H       -14.5027402617        6.0774680027        3.6188021579
 H       -15.3678524256        5.4908239515        2.3802708865
 H       -13.5511644869        3.4532904163       -0.1081205482
 H       -12.5737343857        2.2076553451        0.4794506983
 H       -11.9251186715        3.8043457366        0.0764218948
 H       -15.3040449417        3.3291764315        1.7002902313
 H       -14.6646064635        3.0667079869        3.3104985982
 H       -14.4414277231        1.9266009824        1.9522962668
 H        -9.2248090308        5.9820097472        7.9711319876
 H        -9.4731787488        4.2515556072        7.1883870932
 H       -10.7246099089        4.9896559417        8.0114064870
 H       -11.5778720506        7.3446888286        7.3686849296
 H       -11.5128888141        7.7777239904        5.6086449049
 H       -10.0646846343        7.9744164370        6.8142641774
 H        -4.9233151300        5.5145521805        3.5089874906
 H        -4.7584920324        6.8766125816        2.4321311350
 H        -4.2637070095        5.2602717221        1.8894027889
 H        -7.4381173760        5.9584956848       -0.1159130707
 H        -5.6258922425        5.3324272032       -0.1553968449
 H        -6.0387533781        7.0450011340        0.2996894786
 H        -4.0126087736        0.0313808759       -0.6595740038
 H        -5.4591409932       -0.3861752413       -1.6410730154
 H        -5.5552188740       -0.1143215116        0.1265080973
 H        -4.5532950275        3.3116622896       -2.0471253935
 H        -5.0999654375        2.0204623333       -3.1558734329
 H        -3.5503688508        1.9189082581       -2.1937170904
 H        -8.1679068733        5.7479330423       -4.9940960748
 H        -7.8862932278        6.3358564447       -3.2961800834
 H        -8.8263146790        7.1431165243       -4.4704210438
 H       -10.9046456279        6.7710653166       -2.8170715445
 H       -11.8333590911        5.3570154969       -3.1225687144
 H       -11.4956287161        6.2514654324       -4.5260926351
 H       -10.0650797489        0.2281566744       -8.4441623371
 H       -10.7173196795       -1.3634055349       -8.4553869035
 H       -10.1429030559       -0.6075364452       -6.9008056100
 H       -13.8338694902        1.0041815981       -8.3581779431
 H       -13.5941556604       -0.6780656731       -8.7526369485
 H       -12.6953952928        0.5976800424       -9.5573895488
 Na       -9.9691956582        4.9940927103        1.1536621778
