117

 C       -14.1184399651       -1.3614196464       -6.1821574534
 C       -12.7779444317       -0.7072481046       -5.9647608474
 O       -12.1636490856       -0.8128403461       -4.8914939330
 C       -12.1221643922        0.1284657439       -7.1273356667
 C       -11.9746386592        1.6347062224       -6.6644615940
 O       -12.7276692063        2.5130162746       -6.9421997565
 C       -10.7541613792        2.1039153989       -5.7344624550
 C       -10.7838374282        3.5270194777       -5.3066550549
 C        -9.3986489328        3.7998644839       -4.5791788259
 O        -8.4607047810        3.0676327232       -4.7611904594
 C        -9.3462867888        5.0455844658       -3.5542370154
 C        -9.5543267328        4.5263455204       -2.1197134380
 O       -10.2278539772        5.1937905286       -1.2840107441
 C        -9.1201748134        3.1572847224       -1.7986809848
 C        -7.6034073819        2.9487237210       -1.9521565764
 C        -7.1985317238        1.5137080624       -1.5875372361
 O        -7.9793459297        0.5712577046       -1.5667398076
 C        -5.6347199263        1.3392677504       -1.0376042852
 C        -5.3820326178        2.3206712886        0.1011690601
 O        -4.8723710954        3.4725546773        0.0003637072
 C        -5.9130771045        2.0349099778        1.5288356519
 C        -5.7738169520        3.2847091983        2.4375695263
 C        -6.6989098606        4.3235888802        1.8145454220
 O        -7.7000883323        3.8638127043        1.3067523807
 C        -6.3837840766        5.8202573073        1.8204448710
 C        -7.5496852381        6.6471532635        2.5614052021
 O        -8.6990967339        6.6855525681        2.1064422137
 C        -7.2629606230        7.3910311212        3.8167567884
 C        -8.4266340732        7.5067124681        4.7906624663
 C        -9.1203428121        6.1243350673        5.0307243063
 O        -8.6538406465        5.0693428444        4.5791241358
 C       -10.2922002253        6.0807407393        6.0965815015
 C       -11.4090040299        5.2068121023        5.3513464308
 O       -12.2385579923        5.7315417117        4.6276652629
 C       -11.4790893569        3.7164711184        5.6244822676
 C       -12.3428974881        3.0879023935        4.4616146239
 C       -12.0631841980        3.4354901642        2.9996121830
 O       -10.8702207627        3.4506429911        2.6730436948
 C       -13.1750223759        3.7777715333        2.0173219010
 C       -12.9952232090        5.3951619205        1.9137392578
 O       -12.0292988456        5.8030510866        1.2546359588
 C       -14.0999291148        6.3412168156        2.2476201521
 C       -13.0401058514        3.0461425886        0.6559445039
 C       -14.5646728209        3.3706625856        2.5158143713
 C        -9.8243579470        5.3584625207        7.4176076884
 C       -10.9292590174        7.4427297825        6.5541772200
 C        -4.9869261321        5.9875992601        2.4520843435
 C        -6.3847937864        6.2308303546        0.2646148348
 C        -5.3876178618       -0.0449343268       -0.6295131882
 C        -4.7105052924        1.8007662984       -2.2320482868
 C        -7.9617782375        5.7575054031       -3.7197138947
 C       -10.4613900827        6.0396971230       -3.8982922771
 C       -10.7306394358       -0.3613443946       -7.4862976781
 C       -12.9460859171        0.1862458568       -8.4522207201
 H       -14.8249339620       -0.4791034659       -6.3171173920
 H       -14.3233420151       -1.9838404809       -5.3017541233
 H       -14.1534065250       -1.9065795354       -7.1296705786
 H        -9.8567913027        1.8873021254       -6.3252091031
 H       -10.7191915702        1.5087711197       -4.8560543083
 H       -11.7130300435        3.7400678161       -4.7835995563
 H       -10.9224441633        4.1755406904       -6.1912284460
 H        -9.6074163625        2.4897530783       -2.5671409560
 H        -9.5098141380        2.9835629148       -0.7332605045
 H        -7.0213225199        3.7646648382       -1.4058673033
 H        -7.3750570372        3.1034149851       -2.9862094818
 H        -5.5787893675        1.1319691884        2.0280028943
 H        -6.9258564695        1.8219553343        1.3056500385
 H        -4.7324727067        3.5280201290        2.4946225823
 H        -6.0308650539        3.0082414806        3.5091420632
 H        -7.0279094091        8.4535125010        3.6014191604
 H        -6.3692039915        6.9571863878        4.3412279749
 H        -9.1536642460        8.1404048700        4.3079398519
 H        -8.2120243053        8.1383544651        5.6586590565
 H       -11.9933864775        3.5841469442        6.5683798055
 H       -10.5233841907        3.1915280323        5.6246255890
 H       -13.3806017247        3.1512808770        4.7048750382
 H       -12.0990528331        1.9661102117        4.5435526160
 H       -13.8403612318        7.3622600950        2.3413673007
 H       -14.5467487707        6.2111272838        3.2564344362
 H       -14.9718809584        6.1824794344        1.5831592785
 H       -13.7841857425        3.3900438644       -0.0278898932
 H       -13.2399481289        1.9990684693        0.8314024247
 H       -12.0896746700        3.1824526773        0.3229435516
 H       -15.3100200087        3.6108660399        1.7779721905
 H       -14.8977699859        3.9538450097        3.4142757291
 H       -14.6326046703        2.3866489112        2.8679479888
 H        -8.9514595345        5.8163440126        7.8898621122
 H        -9.5555702971        4.2701080357        7.1653419082
 H       -10.7088821438        5.4132107705        8.0724487255
 H       -11.6104902616        7.2212844715        7.4205552125
 H       -11.4626530142        7.9070178332        5.7387407623
 H       -10.1519110007        8.1912548562        6.9094165646
 H        -4.9760069083        5.7051734141        3.4847316094
 H        -4.8140056356        7.0301987491        2.3909398953
 H        -4.1696062609        5.5812807222        1.8325155410
 H        -7.4349744748        6.3137141878       -0.0607209140
 H        -5.8857116013        5.3756728888       -0.2506494451
 H        -5.7459751666        7.1429092267        0.1294368686
 H        -4.4468301571       -0.0157743412       -0.0599840364
 H        -5.3655848960       -0.6513391452       -1.5263850161
 H        -6.2493801485       -0.4106582683       -0.0260324481
 H        -4.8797975249        2.8294547263       -2.4723174913
 H        -4.8491705319        1.1825972032       -3.1999172032
 H        -3.6879377553        1.6146997665       -1.9238871072
 H        -7.1063460165        5.7146769668       -3.0268834714
 H        -8.1145387453        6.8335310567       -3.8418374856
 H        -7.6450723300        5.3511976350       -4.6822216707
 H       -10.3445759077        6.8257174571       -3.1457831982
 H       -11.4715097181        5.6010919840       -3.8197331313
 H       -10.2254748628        6.4938910987       -4.8509426558
 H       -10.3085365966        0.4209808721       -8.1776580339
 H       -10.7534135279       -1.2913560254       -8.0044863020
 H       -10.0917594573       -0.5039335417       -6.6093005086
 H       -13.9022682973        0.6558463801       -8.3499794994
 H       -13.1171621381       -0.8315972385       -8.8403585927
 H       -12.3683416758        0.6862694975       -9.2671806470
 Na       -9.9074820843        4.8599214438        1.0105154827
