117

 C       -14.0110893756       -1.6830417709       -5.9879637054
 C       -12.7931491674       -0.6918386211       -5.7824531196
 O       -12.3264262521       -0.5968995263       -4.6911370831
 C       -12.1705729658        0.1286128784       -7.0545946421
 C       -11.9669886172        1.6845671743       -6.5546790362
 O       -12.7434939250        2.5648900308       -6.8856911589
 C       -10.7462308992        1.9556183383       -5.5976695549
 C       -10.7134010323        3.3736847510       -5.1683874636
 C        -9.2659440910        3.7911109157       -4.8155213285
 O        -8.2725156148        3.2774917386       -5.3051361575
 C        -9.1369779861        4.7922494912       -3.6014108717
 C        -9.4911252659        4.1697654210       -2.2557859980
 O       -10.0350860151        4.8672456198       -1.4261293826
 C        -9.2045357638        2.7226628741       -1.8920129455
 C        -7.6920632407        2.4634032631       -1.9513860258
 C        -7.2773439300        1.0955862434       -1.2945488068
 O        -8.0907410025        0.3186728035       -0.8504452108
 C        -5.7155964092        1.0227957744       -0.9956164170
 C        -5.4393917034        2.1935050471       -0.0258080588
 O        -5.1770232979        3.2559004009       -0.4951034750
 C        -5.7007556772        1.9940901599        1.5750340532
 C        -5.7619457660        3.3566611246        2.1525526489
 C        -6.8071071167        4.3266833073        1.5405470192
 O        -7.7928721464        3.8819404820        0.9632903170
 C        -6.5530173394        5.8427508482        1.7751180388
 C        -7.6754298363        6.4490905561        2.6663554127
 O        -8.8519188391        6.3386906231        2.3927104420
 C        -7.4187929789        7.5347046751        3.7912369865
 C        -8.6461073962        7.6092353347        4.7308356466
 C        -8.9334076821        6.3017274886        5.4209139737
 O        -8.2779495577        5.3193434775        5.2107765783
 C       -10.2830408789        6.1606625648        6.2684968424
 C       -11.2032224151        5.2609054375        5.3482868457
 O       -11.9147477013        5.9049307714        4.5894431164
 C       -11.1727407891        3.7467657962        5.2992668754
 C       -12.2288831336        3.2260162697        4.3211947932
 C       -12.0279317753        3.8702027899        2.9451982135
 O       -10.9062811986        3.9695399222        2.5573979613
 C       -13.2205563465        4.1907499625        1.9760809746
 C       -13.0269867686        5.7224847632        1.6264550224
 O       -12.0521059771        6.1125974549        1.0880163881
 C       -14.2483154707        6.6328040385        1.8022371114
 C       -13.0278316064        3.3000405332        0.7256444107
 C       -14.4975136400        3.9211410173        2.6512131361
 C        -9.9172421200        5.4367672935        7.6831742085
 C       -10.9670647693        7.5472262443        6.4237621636
 C        -5.1358765172        6.2248313535        2.3176745647
 C        -6.6920693044        6.5173371436        0.4388145409
 C        -5.5503806612       -0.4539595773       -0.2627174117
 C        -4.7940261700        1.1242202309       -2.2189688191
 C        -7.7049646696        5.4929443761       -3.6225220329
 C       -10.1696931795        5.9074614073       -4.0076302353
 C       -10.8520019244       -0.5441635160       -7.3587849676
 C       -12.9741310735        0.1350037113       -8.3656427330
 H       -14.5199922230       -1.5177861086       -6.9097988392
 H       -14.7699450226       -1.5726974117       -5.1573476728
 H       -13.5394131573       -2.7086300856       -6.0601986800
 H        -9.8775516972        1.8405797921       -6.1601536371
 H       -10.7040894077        1.3233784416       -4.6878185278
 H       -11.3872998002        3.5702352397       -4.3520769422
 H       -10.8938306792        4.0594162082       -6.0155119366
 H        -9.7350696750        2.0122355020       -2.6356378354
 H        -9.6352275955        2.4593116999       -0.8757359078
 H        -7.0754032458        3.2877506695       -1.5416915668
 H        -7.4305436989        2.3961897186       -2.9964126251
 H        -4.9231636849        1.4069949751        1.9760648966
 H        -6.6148853124        1.4595922582        1.7772182532
 H        -4.7233056915        3.7625328776        2.2935526916
 H        -6.1016071373        3.2525733988        3.2023839504
 H        -7.0961102884        8.4532292885        3.2852852700
 H        -6.5347415682        7.4755782610        4.4568906378
 H        -9.5394005150        7.9741767655        4.2061733455
 H        -8.4732625336        8.3619429771        5.4838941356
 H       -11.3402902581        3.3078399566        6.2705041231
 H       -10.1834220801        3.4166804107        4.9358916969
 H       -13.2239705277        3.5669983262        4.7490364931
 H       -12.1953069093        2.1793901985        4.2564255610
 H       -14.0384937328        7.5491923548        1.2055590076
 H       -14.5057315228        7.1395630391        2.7492289724
 H       -15.1854028841        6.2881619936        1.3912619227
 H       -13.8575911502        3.4449166054        0.1055075460
 H       -13.0098753224        2.3001625654        1.0394084786
 H       -12.0590094908        3.4973005952        0.2302680849
 H       -15.3493545557        4.1506743735        2.0225991426
 H       -14.6446570074        4.4877434287        3.5632499320
 H       -14.6611952633        2.8559138967        2.9480643929
 H        -9.0710197816        5.9717317293        8.1604143263
 H        -9.5192120316        4.4814446612        7.4525175010
 H       -10.7694579613        5.4929707384        8.3789017665
 H       -11.9149963192        7.3815058966        6.9286651480
 H       -11.2400693836        8.0096572946        5.4294211659
 H       -10.3748356865        8.2675601357        6.9518327813
 H        -4.9083603791        5.7443247513        3.2364877060
 H        -5.0700537056        7.3255995101        2.4264287792
 H        -4.3971021569        5.8464161951        1.6602379531
 H        -7.6285623485        6.1202262730        0.0293961961
 H        -5.8958822681        6.0305304902       -0.1569017781
 H        -6.6244695372        7.6195392502        0.4197977453
 H        -4.4973048497       -0.5762884765        0.0695068101
 H        -5.7591259692       -1.2640859718       -0.9939631245
 H        -6.2984531436       -0.4067195748        0.5294901994
 H        -5.0179195770        2.0423778827       -2.8520003057
 H        -4.9864601318        0.2995530008       -2.8077274549
 H        -3.6894057667        1.1472082909       -2.0186542794
 H        -7.8054476465        6.5219925581       -3.3297702908
 H        -7.3683554457        5.4283827396       -4.6597880418
 H        -6.8834647255        4.9534824553       -3.1548625474
 H       -10.2282651757        6.5278610196       -3.1273478366
 H       -11.1756175462        5.4693605701       -4.0997908201
 H        -9.8062531018        6.5015592007       -4.8508083683
 H       -10.4381921911       -0.1745942694       -8.2885916991
 H       -10.9438995411       -1.6428782981       -7.4679499148
 H       -10.0861741133       -0.3656914658       -6.5733482472
 H       -14.0464231628        0.5179248765       -8.3232269104
 H       -12.9319446495       -0.8906497287       -8.8172241123
 H       -12.4074357521        0.7748740257       -9.0588839686
 Na       -9.9713437914        5.1281524968        0.8431256838
