117

 C       -13.8503950529       -1.8988294239       -5.6969381035
 C       -12.9605563837       -0.6657397995       -5.6835851111
 O       -12.6216542415       -0.1626797056       -4.6082702940
 C       -12.3579912477       -0.1284741340       -7.0418543496
 C       -11.9100677853        1.3351881040       -6.7355567107
 O       -12.6478672878        2.2338297260       -7.0520279076
 C       -10.5805663033        1.5513536840       -5.9438844453
 C       -10.4591316524        3.0737544956       -5.4847663910
 C        -9.0405890248        3.4422446526       -5.0736146121
 O        -8.0635455825        3.1001542106       -5.7188048702
 C        -8.8680479991        4.5814739288       -3.9375443922
 C        -9.2113162453        4.1670562111       -2.4526309076
 O        -9.5889232836        5.0992223868       -1.6789369084
 C        -9.1345649841        2.7907758337       -1.9836178245
 C        -7.8202344202        1.9974990995       -2.2557465677
 C        -7.5153876658        1.0291196815       -1.0759486107
 O        -8.3551532744        0.5729395382       -0.3670165535
 C        -5.9814057628        0.7397059763       -0.8174120202
 C        -5.5418425338        2.1194035112        0.0269612764
 O        -4.9616026513        2.9921662114       -0.5915108196
 C        -5.8813830672        2.2204555405        1.5056224660
 C        -5.6987455437        3.7099582793        2.0199770008
 C        -6.8334211844        4.4659342114        1.4744121985
 O        -7.8504117513        3.9395747097        1.1112085781
 C        -6.7061433941        6.0711805209        1.4998360233
 C        -7.7913404653        6.5978303618        2.5671676745
 O        -8.9500908942        6.6057110363        2.1974047276
 C        -7.3473337742        7.1040507387        3.8923831873
 C        -8.5715506757        7.3707458439        4.8783366967
 C        -8.7831714639        6.3845378544        5.9821936860
 O        -8.0062939473        5.6408828609        6.4566765045
 C       -10.2843547693        6.4040128366        6.5761004032
 C       -11.1905964213        5.7172526924        5.4390123710
 O       -11.9383120561        6.3834339144        4.7834409868
 C       -11.0155488772        4.2378689598        5.0950509776
 C       -12.2483379484        3.7145162368        4.3947664683
 C       -12.0702884663        3.7851003430        2.8622387499
 O       -11.0199816552        3.4237677445        2.4270964357
 C       -13.1901409353        4.3846638768        1.8935276933
 C       -12.7892254309        5.9976555631        1.5759694598
 O       -11.7526031536        6.3293466159        1.0835359058
 C       -13.7956715373        6.9704391858        1.9525408560
 C       -13.0665671790        3.5424762434        0.5891720624
 C       -14.6756463646        4.2917708092        2.4543214013
 C       -10.3713911668        5.5111302746        7.8630794631
 C       -10.8732940727        7.8504935672        6.9131626072
 C        -5.3108753339        6.4412975654        1.9403733482
 C        -7.0239117742        6.6993559229        0.1095332139
 C        -5.9747835861       -0.5454825601        0.1249621474
 C        -5.0758702460        0.5008816655       -2.0231878739
 C        -7.3450351001        5.0837993243       -3.8654865718
 C        -9.7367214590        5.7598414292       -4.2270963843
 C       -11.1505481384       -1.0128081910       -7.3775122110
 C       -13.4383849191       -0.1792661034       -8.1854239046
 H       -14.2989935595       -2.1907971200       -4.7575654158
 H       -13.1598568883       -2.7284921288       -6.0944090087
 H       -14.5580979908       -1.7863913512       -6.5175109641
 H        -9.7339899543        1.1131110959       -6.5817530887
 H       -10.6649523571        0.9596467942       -5.0565481795
 H       -11.1319211926        3.1955197265       -4.6346600285
 H       -10.7308072319        3.6964935334       -6.3192019466
 H       -10.0155594654        2.2040670154       -2.3321755071
 H        -9.3748981013        2.7547123155       -0.8381361122
 H        -6.9508838231        2.7207428248       -2.1834554734
 H        -7.8087653682        1.6084794063       -3.2878699006
 H        -5.0950407338        1.6153295957        1.9739874650
 H        -6.8790955465        1.8641523595        1.6158018331
 H        -4.7890186690        4.1592606595        1.6439600283
 H        -5.5532545165        3.6791405139        3.1457592609
 H        -6.7747615436        8.0246150206        3.7446603965
 H        -6.5209265654        6.5520784168        4.3493370437
 H        -9.4202900648        7.3029593699        4.2080690628
 H        -8.4248331825        8.4008657158        5.2700366063
 H       -10.7607212149        3.6216161132        5.9878823146
 H       -10.1107919453        4.1181309735        4.4898408809
 H       -13.0712221021        4.1873887992        4.8619646768
 H       -12.3384702094        2.6678750505        4.5716021477
 H       -13.5593123823        7.9371873906        1.5677096355
 H       -13.9780179802        6.9670478243        3.0696120121
 H       -14.8136350040        6.7306110300        1.5595527477
 H       -13.9421910647        3.3002233115        0.0917468980
 H       -12.5394516665        2.7129377380        0.7841942634
 H       -12.5140039013        4.1289015847       -0.1121097457
 H       -15.4028768499        4.6548151305        1.7257585923
 H       -14.7476446774        4.9869417653        3.3553587848
 H       -15.0257307776        3.3194609672        2.7085221099
 H        -9.8224407026        6.0615929267        8.6248997133
 H        -9.9794112655        4.4700878675        7.6925877194
 H       -11.4264105981        5.3878563879        8.1963448000
 H       -11.9669298067        7.7407450346        7.0851239157
 H       -10.8116755334        8.5554156744        6.0849473403
 H       -10.5453808555        8.3200705054        7.8729960808
 H        -5.1433389856        6.0193398895        2.8785792856
 H        -5.0782595190        7.4707884481        2.0801976937
 H        -4.5632740512        6.1111129445        1.1740969261
 H        -7.8123975319        6.2357379383       -0.5055951971
 H        -6.0530295896        6.8006351968       -0.4609751522
 H        -7.3683672900        7.7629376325        0.3019374412
 H        -5.0432941841       -1.0961589516       -0.0134047863
 H        -6.7003091768       -1.1119512189       -0.4316118040
 H        -6.2768565868       -0.4758180476        1.1889574938
 H        -4.4817695122        1.3767620078       -2.3450744664
 H        -5.6717162025        0.2372994229       -2.8871158533
 H        -4.2823911847       -0.2654015965       -1.8965035148
 H        -7.1412889574        5.3449337526       -2.8385948876
 H        -7.1495907101        5.9269998491       -4.5685762315
 H        -6.6775046154        4.2401696139       -4.0343985680
 H        -9.6515394177        6.4153615506       -3.3698537100
 H       -10.7649634434        5.4476602141       -4.4861699455
 H        -9.3892497807        6.1697960432       -5.1373513739
 H       -10.7923456048       -0.9050485612       -8.4422949355
 H       -11.3476125696       -2.0556040531       -7.2758515284
 H       -10.2462928050       -0.8077838250       -6.7896583734
 H       -14.1269864860        0.6220218216       -7.9147872858
 H       -14.0678009642       -1.0844801476       -8.1386620497
 H       -13.0672607986        0.0540288862       -9.1676923834
 Na       -9.9942242740        4.9442924155        0.7483490941
