117

 C       -13.8456774527       -2.0204013165       -5.6675133019
 C       -12.9988326793       -0.7302417286       -5.5770551782
 O       -12.7448336353       -0.1893643461       -4.5575971627
 C       -12.4295032012       -0.1414564004       -6.9407563429
 C       -11.9110442990        1.3844146811       -6.7261184240
 O       -12.5307539482        2.3350834132       -7.1446389783
 C       -10.5528996766        1.5501597504       -6.0691708020
 C       -10.4113103162        3.0744662685       -5.5623679134
 C        -8.9831910149        3.4134707011       -5.0937975648
 O        -8.0041328171        3.0037000025       -5.6394447659
 C        -8.8089294529        4.5429988209       -3.9538072622
 C        -9.2501206301        4.1575145432       -2.4806031675
 O        -9.4888904561        5.1016544786       -1.7271574908
 C        -9.1996294686        2.7430306175       -1.9772030705
 C        -7.7722394438        2.1080990571       -2.1472013098
 C        -7.5168170810        1.1020933684       -1.0270466158
 O        -8.4986067041        0.7107495369       -0.3982038088
 C        -6.0049074338        0.6870722183       -0.7327378810
 C        -5.5010442907        2.0383021214       -0.0027026516
 O        -5.0056084358        2.9121352870       -0.6318622563
 C        -5.8466224624        2.1653196810        1.5221944281
 C        -5.6237380701        3.6723629479        1.8108209798
 C        -6.8790153405        4.4815744607        1.4460761318
 O        -7.8982740521        3.9026591880        1.0630776351
 C        -6.7448742918        6.0799317783        1.4790381132
 C        -7.8028469380        6.5859053371        2.5213921950
 O        -9.0017072540        6.5436427832        2.2213784022
 C        -7.3490921800        7.0787056735        3.9184299959
 C        -8.5958971840        7.3908446511        4.8753528773
 C        -8.8533638236        6.4651139345        6.1179016642
 O        -8.0540304471        5.6481565266        6.5755434508
 C       -10.3201011425        6.4804463082        6.6287383117
 C       -11.1204461393        5.7602811907        5.4463657090
 O       -11.9470434927        6.4329477830        4.8189329379
 C       -10.9929438018        4.2669686591        5.1870038819
 C       -12.2798278013        3.7821052380        4.3711395058
 C       -12.1045469439        3.8885753961        2.8870494245
 O       -11.1223796103        3.4574434265        2.3333950095
 C       -13.1914584014        4.4791019585        1.8849328274
 C       -12.7945646444        5.9437061812        1.6547291942
 O       -11.7736065322        6.1987148112        1.0676256970
 C       -13.8001607379        7.0717024054        2.0892126252
 C       -12.9923492158        3.7081925361        0.5301099256
 C       -14.6573278545        4.3400456058        2.3664443446
 C       -10.3328608399        5.5696541416        7.9023420216
 C       -10.8200970229        7.8629213603        6.9164246430
 C        -5.3463804010        6.4981372458        1.9242901951
 C        -7.0653234212        6.6916781783        0.0938715059
 C        -5.8689310998       -0.5526023233        0.2407282334
 C        -5.2247312370        0.4817034127       -1.9069348430
 C        -7.3327584320        4.9045146790       -3.9295986256
 C        -9.7033806970        5.7471158426       -4.4903426023
 C       -11.2766778041       -1.0584147612       -7.4120047838
 C       -13.4210354683       -0.2581628200       -8.1087572796
 H       -13.6884749864       -2.5194637878       -4.7536599942
 H       -13.5376842560       -2.6593617416       -6.5194273314
 H       -14.9117446095       -1.8225880859       -5.8078204403
 H        -9.8633967490        1.2394877648       -6.9119974841
 H       -10.4030878566        0.8184353769       -5.2375864695
 H       -11.1779241707        3.2851364111       -4.8093837789
 H       -10.6080739307        3.6892583887       -6.4725320643
 H        -9.9106056183        2.0236248916       -2.3330813189
 H        -9.4883720347        2.7847866737       -0.9611833065
 H        -6.9584023162        2.9306718914       -2.2543599921
 H        -7.7781510624        1.5853353620       -3.0779779339
 H        -5.1509440970        1.5746359618        2.1736532005
 H        -6.9321116173        2.0039481993        1.6588173670
 H        -4.7216074929        4.0802998286        1.3892176142
 H        -5.4761835448        3.6760368650        2.8957347870
 H        -6.6226290214        7.8562962376        3.9007296899
 H        -6.7438507628        6.3242510138        4.4532968053
 H        -9.4687454221        7.4122143610        4.2151447857
 H        -8.3395468698        8.3685500604        5.3309478302
 H       -10.8379885036        3.7564092540        6.1219585922
 H       -10.0518422894        4.0198774323        4.6443955174
 H       -13.1584670706        4.4269011768        4.7509293914
 H       -12.5535433819        2.7562621486        4.5405515996
 H       -13.5544328788        8.0060754739        1.5697154657
 H       -13.7092098943        7.1815287125        3.1845560236
 H       -14.8443790424        6.9218134942        1.9813073901
 H       -13.8985355415        3.4463060878        0.0781188499
 H       -12.3827219005        2.8106066413        0.6395197765
 H       -12.5006812268        4.3399498229       -0.2009435848
 H       -15.4259001430        4.6961817910        1.6816761394
 H       -14.7943501065        4.8978321796        3.3104717183
 H       -14.8633509744        3.2746943031        2.6069496397
 H        -9.6448367649        5.9957423625        8.7010402712
 H       -10.1155366565        4.5269225085        7.6647647872
 H       -11.4118246400        5.5532493400        8.2780869102
 H       -11.8656430635        8.0201140503        7.2278885374
 H       -10.6204029193        8.6205025617        6.0783848098
 H       -10.2847723185        8.1619741906        7.8124716127
 H        -5.1283083963        6.0841060569        2.8688432753
 H        -5.1171612542        7.5780886620        2.0411881588
 H        -4.6312595289        6.2290156002        1.1731418907
 H        -7.8410668268        6.0954987472       -0.4316819916
 H        -6.1189781283        6.7295624885       -0.5154358395
 H        -7.4759564536        7.7363737137        0.1713575171
 H        -4.8804249439       -0.9784064478        0.2029350564
 H        -6.5094019364       -1.2808646618       -0.2066781406
 H        -6.1837488560       -0.3657927681        1.2391995202
 H        -4.6355146986        1.4067194412       -2.2178078364
 H        -5.7276815319        0.1539200459       -2.7454354545
 H        -4.3931229373       -0.2250152835       -1.7205261469
 H        -7.1425911506        5.3761526829       -2.9737438176
 H        -7.0586309367        5.5636917541       -4.7632773479
 H        -6.7250568395        3.9742282463       -3.8274156546
 H        -9.6474203427        6.5283375465       -3.7691616720
 H       -10.7283433381        5.4123113282       -4.7405500270
 H        -9.3007415802        6.0132618173       -5.4599085571
 H       -11.0418121090       -1.0488826793       -8.4747667107
 H       -11.2981487457       -2.0967423437       -7.1304619516
 H       -10.3533655738       -0.6791634260       -6.9317547982
 H       -14.3721094311        0.2330943104       -7.9815409677
 H       -13.6359562295       -1.2930791292       -8.1802850721
 H       -12.9833083163        0.0394492025       -8.9994714248
 Na       -9.7870453097        4.9068080663        0.6795483275
