117

 C       -13.8184744051       -2.0508024824       -5.6256479088
 C       -13.0007025461       -0.7680313613       -5.5490799319
 O       -12.8647325000       -0.2081815241       -4.4718888175
 C       -12.3940506031       -0.1637493216       -6.9231216115
 C       -11.8922956374        1.3415522332       -6.8301866652
 O       -12.5198367298        2.3085643898       -7.2429923599
 C       -10.4714909580        1.6059542128       -6.1339699400
 C       -10.3952783135        3.0134517865       -5.5869226573
 C        -8.9763842290        3.3354349361       -5.1394157240
 O        -7.9496553205        2.8010931994       -5.5242331036
 C        -8.8077935414        4.5014320237       -4.0367578853
 C        -9.2457325896        4.1899192687       -2.5546203860
 O        -9.4557345101        5.0742886457       -1.7775830075
 C        -9.1665122409        2.7372166372       -2.0881552710
 C        -7.7329506789        2.2008216798       -2.0759564788
 C        -7.5821606910        1.1027645711       -0.9694702900
 O        -8.5136064405        0.6823439190       -0.2886341484
 C        -6.0294567750        0.6579099723       -0.6612312442
 C        -5.5135285270        1.9116215713        0.0412131982
 O        -5.0543883406        2.7722413031       -0.6833993858
 C        -5.7428160252        2.1474813015        1.5383493334
 C        -5.6179004126        3.6602065933        1.7914853648
 C        -6.8080324879        4.5536698376        1.4034497606
 O        -7.8337863305        3.9473413353        1.0527535954
 C        -6.7370544771        6.0522112753        1.5267304087
 C        -7.8941602566        6.4923170905        2.5709076834
 O        -9.0738915081        6.4798292380        2.2859169828
 C        -7.4508770144        6.9181614777        4.0009200436
 C        -8.5742082664        7.4410160059        4.8961152241
 C        -8.8614340290        6.4436085775        6.0637539928
 O        -7.9424415306        5.7625285895        6.5365925034
 C       -10.3447045718        6.4524760044        6.6550678973
 C       -11.2483533727        5.8250009779        5.5613614474
 O       -11.9176016961        6.5496424910        4.8332681807
 C       -11.1431273195        4.3524233608        5.2218401999
 C       -12.3477239936        3.8544261842        4.3282894206
 C       -12.0861718302        3.9397225920        2.8103990446
 O       -10.9856209878        3.5805416840        2.3155625927
 C       -13.1866999684        4.4796654481        1.8581836229
 C       -12.8382539373        5.9677494201        1.6753725156
 O       -11.7773601514        6.2184044860        1.0650119782
 C       -13.6328740756        7.1734677658        2.2036480518
 C       -13.0662823278        3.8586394786        0.4384119306
 C       -14.6511578061        4.2500453600        2.3993947317
 C       -10.3499710263        5.6593430524        7.9815250595
 C       -10.7631153387        7.8446253368        6.8901806389
 C        -5.3022540703        6.6213222970        1.9005462585
 C        -7.1128787955        6.6493121898        0.1169336433
 C        -5.9631196886       -0.5151652390        0.3810007238
 C        -5.3009416087        0.4581660260       -2.0506184929
 C        -7.3241196805        4.8222146849       -3.9836962167
 C        -9.6269661207        5.7887652429       -4.6704783609
 C       -11.2453361986       -1.1127980412       -7.3461094362
 C       -13.5612137283       -0.2134886784       -8.0291559506
 H       -13.1959414050       -2.7097185564       -4.9836935458
 H       -14.0810875839       -2.4349318944       -6.5324904997
 H       -14.7257808069       -1.9084696367       -5.0391266053
 H        -9.7505210660        1.4306888934       -6.8906028538
 H       -10.2305909908        0.8688132309       -5.2913293876
 H       -11.1356486541        3.2136298281       -4.7771422290
 H       -10.6707906597        3.6604457826       -6.4712539471
 H        -9.7458824568        2.0359276301       -2.6333373560
 H        -9.5976516609        2.6972250535       -1.1646461593
 H        -7.0697875175        3.0236055256       -1.9145638568
 H        -7.4711745237        1.8003501034       -3.0683973139
 H        -4.9210466873        1.6798144415        2.0969225668
 H        -6.7997874702        1.8721372556        1.8259075035
 H        -4.6885681056        3.9877620852        1.2819385822
 H        -5.3944083505        3.7415365449        2.8283578762
 H        -6.6293095238        7.6431974079        3.9606344713
 H        -6.9774187319        6.1456014752        4.6352709480
 H        -9.4450893615        7.5551966163        4.2198705796
 H        -8.2028582882        8.3454422216        5.3440641779
 H       -10.9680692943        3.7593568475        6.1034256815
 H       -10.2232934944        4.1353492007        4.6546956419
 H       -13.2872660243        4.4160827627        4.5901242491
 H       -12.5651323657        2.7443804521        4.5293371658
 H       -13.3739333377        8.0834446356        1.6436579227
 H       -13.4546160055        7.2456019107        3.2317317837
 H       -14.7094178315        7.0962671009        2.1918866233
 H       -14.1052659474        3.7813500962       -0.0506520318
 H       -12.6107978847        2.7866846535        0.4285765943
 H       -12.4738555934        4.4519511269       -0.2666866090
 H       -15.4028847109        4.6448832637        1.6760901178
 H       -14.8712239441        4.6862009918        3.3292090950
 H       -14.7829034299        3.1322020644        2.5316159420
 H        -9.7008625416        6.1747895094        8.7334865985
 H       -10.0965597715        4.5998840098        7.8782130336
 H       -11.3973194059        5.6744070914        8.3073555838
 H       -11.7505997358        7.9999970269        7.3114008418
 H       -10.6862708040        8.4579080356        5.9922570465
 H       -10.1309419440        8.2478320819        7.6880253141
 H        -4.8598008162        6.3345430085        2.9074207639
 H        -5.2742648472        7.7097483219        1.8948374572
 H        -4.6275229278        6.4460255031        1.1153225451
 H        -7.9972935205        6.0537551377       -0.1953921927
 H        -6.2983987431        6.4442955840       -0.5620786329
 H        -7.3804235130        7.6850017308        0.0481409712
 H        -4.9253478675       -0.6180170659        0.6593341341
 H        -6.2524880344       -1.4814154961       -0.0069727621
 H        -6.5334058644       -0.3021054689        1.2718349381
 H        -5.0357990152        1.3524023679       -2.5640648638
 H        -5.8829277884       -0.1825533024       -2.7668716078
 H        -4.3649946930       -0.0353451590       -1.9422806890
 H        -7.1130685876        5.6086894682       -3.2237138033
 H        -7.0906530717        5.2081820870       -4.9686967405
 H        -6.7434442217        3.9787503114       -3.6080208737
 H        -9.3461836926        6.5861259484       -3.9833793190
 H       -10.6693641414        5.6180652508       -4.7199601910
 H        -9.2967874707        5.9859171664       -5.7138946146
 H       -10.9265795787       -1.0365186097       -8.3520720841
 H       -11.4574445109       -2.2023341445       -7.1772444958
 H       -10.3651740775       -0.9495630359       -6.7291310766
 H       -14.5226481818        0.0196292060       -7.6743477017
 H       -13.5969960119       -1.1719251577       -8.4736966491
 H       -13.2575351172        0.4286048956       -8.8537891081
 Na       -9.7702256627        4.9024874936        0.5949426639
