117

 C       -13.7466264968       -2.0742968971       -5.6208027200
 C       -13.0637049358       -0.7174850147       -5.5324857402
 O       -12.8513142291       -0.1029483381       -4.4789919828
 C       -12.3807593491       -0.1906781064       -6.8909885062
 C       -11.8881909377        1.2181617208       -6.8340749993
 O       -12.5073617044        2.1379483277       -7.3192238475
 C       -10.4968191190        1.5679382365       -6.2030201556
 C       -10.3479259519        2.9160996425       -5.6021477384
 C        -8.9873763150        3.2748815342       -5.0792299409
 O        -8.0379444765        2.5723314405       -5.3993341127
 C        -8.7332370926        4.5439347181       -4.1429148995
 C        -9.1968536463        4.1913521146       -2.7123009805
 O        -9.4944826589        5.0805755366       -1.9067227014
 C        -9.1692442138        2.7133905741       -2.2324460932
 C        -7.7499717568        2.1612639891       -1.9306151257
 C        -7.6018423702        1.0273680415       -0.9075611729
 O        -8.4647374853        0.6412287772       -0.2012841758
 C        -6.1476504258        0.6327396121       -0.6100390193
 C        -5.5419316897        1.9543596437       -0.0104162926
 O        -4.9794308872        2.8153064764       -0.7062317508
 C        -5.6164446281        2.2203105798        1.5024616254
 C        -5.4748697203        3.7131568068        1.9360239077
 C        -6.7283263606        4.5094282660        1.4624653760
 O        -7.6995884644        3.9615571138        1.0302376530
 C        -6.7993277180        6.0558113452        1.5707537857
 C        -7.8566647976        6.4546278055        2.5965166490
 O        -9.0161605259        6.3450532851        2.3176523337
 C        -7.4681620141        6.7953457584        3.9991666306
 C        -8.5584574283        7.3942822748        4.9042521972
 C        -8.8468391115        6.4589057177        6.0408759624
 O        -7.9294643481        5.8473605748        6.4668926403
 C       -10.3091657545        6.4707654518        6.6616839563
 C       -11.3091681041        5.8791768534        5.5148489150
 O       -11.9290532296        6.6867547616        4.8962208688
 C       -11.2865546404        4.3330851000        5.1760474097
 C       -12.3616006540        3.8697010949        4.2446539536
 C       -12.0452202978        3.9672016086        2.7145553439
 O       -10.8808576286        3.7869902982        2.3943321871
 C       -13.2337310604        4.4747964525        1.7890574967
 C       -12.7319693718        6.0945114343        1.6378231021
 O       -11.7227623242        6.3626311775        1.0334502959
 C       -13.4855858674        7.1847027789        2.3207308091
 C       -13.1743351327        3.8808721478        0.3968890151
 C       -14.6222498033        4.1869767508        2.4220449538
 C       -10.3647106015        5.6603281499        8.0359863710
 C       -10.7353234240        7.9763196720        6.9066999608
 C        -5.4435987068        6.6903237074        1.8935081864
 C        -7.1691965846        6.6437597776        0.1820672176
 C        -6.1282379406       -0.5828331317        0.2962354792
 C        -5.4506478628        0.2881204584       -1.9823915795
 C        -7.2479787976        4.9138099298       -4.0653920517
 C        -9.5098800150        5.7562075273       -4.6730193732
 C       -11.2641992581       -1.1303459783       -7.2578081930
 C       -13.6190800693       -0.1391303031       -7.9023061666
 H       -12.9840751660       -2.8568890139       -5.5552201321
 H       -14.4391949893       -2.1344852260       -6.4662732642
 H       -14.3556369729       -2.1863727005       -4.7432169238
 H        -9.7297754311        1.2791309206       -6.9035568171
 H       -10.3537917875        0.9088211277       -5.3618122394
 H       -11.0953755431        3.0156662480       -4.7810667465
 H       -10.6316536881        3.6811676645       -6.3497363300
 H        -9.6118223866        2.1111402482       -3.0037770633
 H        -9.8906883906        2.5835873597       -1.3719161636
 H        -7.2826949279        3.0110404047       -1.5589284236
 H        -7.1969046782        1.9507872645       -2.8610766410
 H        -4.7956891412        1.6348823798        1.8863823188
 H        -6.6158259230        1.9297780610        1.8075553998
 H        -4.6457379288        4.0624162621        1.2944648484
 H        -5.1450944215        3.8668680669        2.9856185589
 H        -6.6483074482        7.5719566091        3.9360256910
 H        -6.9914096897        5.9913547693        4.5881179055
 H        -9.4103388910        7.4273714027        4.2364563435
 H        -8.1945122887        8.3443036616        5.2706659702
 H       -11.3844427973        3.7736149825        6.1294966648
 H       -10.3518765945        3.9388102334        4.8216525193
 H       -13.2445883511        4.4015129878        4.4841589056
 H       -12.5813201324        2.7840272684        4.5245216042
 H       -13.3851261448        8.1053729054        1.8243793665
 H       -13.3665140494        7.1882353775        3.3865255705
 H       -14.5652805378        6.9064895866        2.2639677612
 H       -14.1170233079        4.1082769533       -0.2267418820
 H       -13.0896537505        2.7729996458        0.4417345603
 H       -12.2735199716        4.2291515143       -0.2302429140
 H       -15.3777021360        4.5876362075        1.7283466701
 H       -14.8356991480        4.6343277127        3.4030732007
 H       -14.7468184726        3.1295392086        2.5725974854
 H        -9.7796871148        6.2331000981        8.7052858443
 H        -9.9693225583        4.6261897384        8.0352080706
 H       -11.3588400541        5.6197532301        8.3779005300
 H       -11.6429828888        7.9605311579        7.4776556084
 H       -10.9567810256        8.4327841602        6.0089987059
 H       -10.1033309487        8.6184107017        7.5186212175
 H        -5.0295723988        6.3716271078        2.8770028214
 H        -5.4328566772        7.7577537874        1.9048487406
 H        -4.6865289068        6.5089351400        1.0950241573
 H        -8.1666631472        6.3863739527       -0.0607433891
 H        -6.5055882207        6.2291495612       -0.5402913710
 H        -7.0848406314        7.7054352138        0.0946405228
 H        -5.1749100728       -0.4332675418        0.8405324737
 H        -6.0202504718       -1.5621743167       -0.1653493419
 H        -6.9584779786       -0.6083430939        1.0588504796
 H        -5.4520852726        1.0779195208       -2.6755062062
 H        -5.8610821132       -0.5896018333       -2.5451202566
 H        -4.4142808534        0.0424654930       -1.8544346548
 H        -7.0357779576        5.8409216014       -3.5115177558
 H        -6.9281855359        5.0645043372       -5.0904243751
 H        -6.7741479024        4.1560465227       -3.4853654043
 H        -9.1077991919        6.5486921923       -4.0197860294
 H       -10.5694533900        5.6237049573       -4.5261767632
 H        -9.3085328424        5.9423090053       -5.7243007538
 H       -10.7625689505       -0.7953554067       -8.1648223314
 H       -11.6815034059       -2.0906849818       -7.5381625126
 H       -10.5256589580       -1.3519660813       -6.5173352929
 H       -14.5154020995       -0.0418986908       -7.3044339589
 H       -13.7227352666       -0.9822701152       -8.6150700101
 H       -13.4870399707        0.7359371734       -8.5758999694
 Na       -9.9341274581        4.9330809285        0.5273781713
