117

 C       -10.7212924887       10.4962928013       -3.2300888370
 C        -9.6668435175        9.4854030514       -3.6227181241
 O        -9.7458666778        8.3435634410       -3.2433852136
 C        -8.5693578928        9.9770352778       -4.5428247577
 C        -7.5566026194       11.0290834075       -3.7869577795
 O        -7.7832102794       12.2043532222       -3.7975138200
 C        -6.3556704773       10.4242638249       -3.0224824762
 C        -6.8745802955       10.2593008164       -1.6051507123
 C        -5.8344541464        9.4714768916       -0.7526079184
 O        -4.7714482928        9.1454671653       -1.2752535063
 C        -6.2591528594        9.0998642361        0.6666983278
 C        -7.6962273329        8.4640226323        0.4468046980
 O        -8.7375918903        9.0072542463        0.8235210777
 C        -7.8183924740        7.0029317590       -0.1440755296
 C        -9.2359140867        6.7327062078       -0.5233707425
 C        -9.7175925127        5.2635964938       -0.4079399871
 O        -9.4534073824        4.3541836300        0.3744501085
 C       -10.8596199919        4.8550042763       -1.5361721814
 C       -11.7721985559        3.7274427714       -0.7618795019
 O       -11.4185870091        2.5768446258       -0.9101329465
 C       -12.9927222770        4.1616153258        0.0065662284
 C       -13.7034959797        2.9753009488        0.6877261031
 C       -12.8751228932        2.6671824983        1.9753660498
 O       -11.7784021050        3.2532443595        2.2501894974
 C       -13.3952231560        1.4717774988        2.8676452054
 C       -12.3282570242        0.3119803327        2.8978471283
 O       -11.2838749487        0.2637269193        2.2333790892
 C       -12.5619494507       -0.7752495129        3.9574679625
 C       -12.1449180068       -2.2028469427        3.3184275623
 C       -12.8155926142       -2.4028395450        1.9230159994
 O       -13.6105588295       -1.6937062912        1.4464130848
 C       -12.2224121877       -3.7271562225        1.0960568217
 C       -10.7695005039       -3.3612896885        0.8775716977
 O        -9.9473685342       -3.6663720184        1.6902035971
 C       -10.3679583127       -2.5564346437       -0.2991067672
 C        -8.8454610569       -2.1320255843       -0.2563031265
 C        -8.6104121725       -0.6036368579       -0.2568139852
 O        -9.5451837917        0.1869820242       -0.3194779892
 C        -7.2236465576       -0.1431435399        0.1356459564
 C        -7.3346479744        0.4054687623        1.6942970521
 O        -8.0995215505        1.3461368830        1.9873121684
 C        -6.4505022158       -0.0790032616        2.7546795878
 C        -6.0482617918       -1.1803843067       -0.0561489876
 C        -6.8399201787        1.2425178097       -0.6441365535
 C       -12.4619921907       -5.0274747789        1.9062697361
 C       -13.1428989004       -3.9507197259       -0.0856386523
 C       -13.3101604990        2.0720059177        4.2997682869
 C       -14.8564500276        1.1042006493        2.6265274247
 C       -11.7291885743        6.1303960971       -1.8767090264
 C       -10.0535004901        4.2907084689       -2.7048977623
 C        -5.2100497028        8.0174967487        1.0863650299
 C        -6.3196032933       10.2356112664        1.6127148293
 C        -7.7329851780        8.8558341992       -5.0679465514
 C        -9.3794450075       10.6293183246       -5.7275525226
 H       -11.4544251387       10.0432376632       -2.4784518401
 H       -11.2439791439       10.7634388716       -4.1721121455
 H       -10.2752294132       11.3362809852       -2.8346827369
 H        -5.5148678845       11.1092839426       -2.8680175192
 H        -6.1645993811        9.4721303661       -3.4268186481
 H        -7.8120770017        9.7252586045       -1.7116497324
 H        -7.0352616331       11.1438827442       -1.0155608989
 H        -7.5201632485        6.3079561110        0.6293177201
 H        -7.2322569117        6.9176219588       -0.9690131770
 H        -9.3566922488        7.1511776644       -1.4877448765
 H        -9.9146736869        7.2625565771        0.0934306305
 H       -13.6892429710        4.7611134049       -0.5697459699
 H       -12.7454087044        4.9199779949        0.8281553067
 H       -13.7678071977        2.1522330488       -0.0463090166
 H       -14.7162864184        3.2482830991        1.0193876680
 H       -13.6053410103       -0.8606750808        4.1213088050
 H       -12.0642340521       -0.4615164566        4.8358810499
 H       -12.5792144779       -3.0012734559        3.9932224192
 H       -11.0631182028       -2.2023524989        3.0666059544
 H       -10.9646257268       -1.6568145992       -0.3354921186
 H       -10.5527715858       -3.2184540599       -1.1646110745
 H        -8.3799241681       -2.4564332074       -1.2230563781
 H        -8.1310739324       -2.6651597655        0.4576422444
 H        -6.8032164060       -0.9863932911        3.2412992826
 H        -6.2649020951        0.5888717842        3.5333990779
 H        -5.4332078464       -0.3539191534        2.4494570645
 H        -5.9753405816       -1.3860440534       -1.0952909774
 H        -6.1613117129       -2.1508152773        0.4677204758
 H        -5.0841919994       -0.6477253022        0.2403954295
 H        -7.6910995303        1.8156201578       -0.8701190402
 H        -6.3801658024        0.9710146059       -1.6099574919
 H        -6.1623295367        1.7649879011       -0.0321642919
 H       -13.5258152417       -5.0777936735        2.2459805129
 H       -11.8522386394       -5.0401143124        2.8626642880
 H       -12.2534003631       -5.8966825014        1.3658690077
 H       -14.1398182454       -3.5981837689        0.1428912741
 H       -13.1751874679       -4.9645850986       -0.4323508935
 H       -12.8682619325       -3.4856621821       -1.0007113467
 H       -13.7863600060        3.0425405694        4.4592245069
 H       -12.2895055299        2.1077883265        4.6870699546
 H       -13.8211211244        1.3659181885        4.9145905740
 H       -15.5518734152        1.9493083789        2.2794210199
 H       -15.2035990486        0.6677074923        3.6336062937
 H       -14.9517491299        0.2797533865        1.9660593778
 H       -12.6176975361        5.9219049165       -2.4824199747
 H       -11.1034417445        6.7263115865       -2.4669758860
 H       -12.0997317283        6.6922887756       -0.9523479232
 H        -9.0090462359        4.1565524235       -2.4593355124
 H        -9.9813377328        5.1273293449       -3.4413302670
 H       -10.5065828887        3.4369624532       -3.1856630321
 H        -4.2896489658        8.5298597812        1.3220444226
 H        -5.0022209140        7.2270337173        0.3358997797
 H        -5.4483131614        7.4977070843        2.0205546775
 H        -7.2616875330       10.7799487016        1.4817822419
 H        -5.4229804441       10.8490700247        1.4139200644
 H        -6.2356899746        9.8437024253        2.6097047215
 H        -7.3217815372        8.1149403497       -4.3488856747
 H        -6.9018299259        9.1842480918       -5.7014660700
 H        -8.3127336479        8.1414955564       -5.6129905371
 H       -10.2797924027       10.0818839000       -5.8608886930
 H        -8.7838491945       10.5646065440       -6.6376091849
 H        -9.6101854413       11.6946855293       -5.4221682747
 Na      -10.0900694386        2.0306166916        0.9381622253
