117

 C       -13.4664472047       -2.0594086584       -5.0881907076
 C       -12.9893073779       -0.6048122549       -5.4427381277
 O       -12.8224720363        0.2448318855       -4.5937166217
 C       -12.5540872098       -0.3129199847       -6.8982751989
 C       -11.9222240207        1.1236832699       -6.7777925968
 O       -12.3944979556        2.0597681982       -7.3753112372
 C       -10.6252722157        1.2226255617       -5.8871103959
 C       -10.2763494942        2.6643049116       -5.8398477627
 C        -9.0310910129        2.8860976224       -4.9847684803
 O        -8.1773896994        2.0249150398       -4.8764468958
 C        -8.8207139198        4.2706672340       -4.2308347099
 C        -9.1963014988        4.1614955092       -2.6913203550
 O        -9.6373699312        5.1366083273       -2.0318112311
 C        -9.1216815033        2.8364885061       -2.0263512943
 C        -7.6801859462        2.3315292738       -1.8617670235
 C        -7.7153291880        1.2340444716       -0.7212527766
 O        -8.7253048953        0.6860243343       -0.3559902162
 C        -6.2549746041        0.6456669517       -0.4307096262
 C        -5.4034519958        1.8753077887        0.0679588325
 O        -4.8184155030        2.6435395539       -0.7081582295
 C        -5.4800758115        2.2953321187        1.5504038377
 C        -5.4195531316        3.7953153953        1.6442833331
 C        -6.6640940078        4.4648715623        1.1706348427
 O        -7.6418938001        3.8968304747        0.6981107393
 C        -6.6462363256        6.0499955109        1.4692297991
 C        -7.7575432297        6.3199845115        2.5693699972
 O        -8.8998678254        5.8875274206        2.3916716728
 C        -7.4772003619        7.0314422863        3.9297108416
 C        -8.7132496625        7.4176021057        4.7372552273
 C        -8.9448965524        6.4048644319        5.9899724833
 O        -8.0567802295        5.6509375422        6.2929913659
 C       -10.3004297769        6.4754760349        6.7064249252
 C       -11.3278429992        5.9593574075        5.6367252640
 O       -12.1088404504        6.7248550913        5.1042536675
 C       -11.2459171649        4.4320624310        5.2358846409
 C       -12.4144420420        4.0166237678        4.2837159766
 C       -11.9769252020        4.4036135680        2.9105349293
 O       -10.8435504645        4.1873132181        2.6133728446
 C       -13.0275890314        4.8430585605        1.7982347259
 C       -12.7268380719        6.3932415845        1.4009616822
 O       -11.8379112413        6.5882707009        0.6223094417
 C       -13.5777808599        7.5054226053        1.9466010969
 C       -12.7239409430        3.9221066905        0.5629578111
 C       -14.4951964941        4.5402022526        2.2761023746
 C       -10.4104497269        5.7305903452        7.9579032134
 C       -10.7158415516        7.9396748092        7.0727591761
 C        -5.2319446060        6.5172558123        1.8532304322
 C        -7.1194505042        6.7309325254        0.1765257917
 C        -6.4551407946       -0.4176870201        0.7238229466
 C        -5.6567398886       -0.0355309003       -1.6645068210
 C        -7.2607765722        4.5933632852       -4.1155848332
 C        -9.5942558311        5.4183713513       -4.9105120510
 C       -11.4106763001       -1.1873601251       -7.4656415143
 C       -13.7639345282       -0.1791340819       -7.9130639166
 H       -14.2191049424       -2.3586389432       -5.7637659167
 H       -13.8377152432       -2.1705613658       -4.0308162504
 H       -12.6893253484       -2.7498164770       -5.2588720927
 H        -9.7371395974        0.7011706760       -6.3037606163
 H       -10.6301285509        0.8299152402       -4.8897900510
 H       -11.0997966187        3.3518058585       -5.5380850618
 H       -10.0515693530        3.1351903035       -6.8264197455
 H        -9.5142112331        2.1510835410       -2.6942543685
 H        -9.6497703738        2.8722041642       -1.0826737946
 H        -7.0233843822        3.1201722061       -1.6913560696
 H        -7.2952305435        1.9239624539       -2.8176091008
 H        -4.6344056617        1.8601021643        2.1624210275
 H        -6.4838450207        2.0411405136        1.9745098607
 H        -4.6000164115        4.1466911344        1.0147560648
 H        -5.2347213791        4.1350117284        2.6499469544
 H        -6.9338557336        7.9923474354        3.8409373760
 H        -6.9174912680        6.3084077836        4.5117959457
 H        -9.5068575909        7.2619183928        4.0124352414
 H        -8.5685223971        8.4378106665        5.0984064505
 H       -11.3252626719        3.7437539062        6.1105375776
 H       -10.2790370425        4.2199449609        4.8141676153
 H       -13.3568752402        4.4002867732        4.6912638614
 H       -12.5406934355        2.8613853816        4.3042273809
 H       -13.0999307476        8.4305734436        1.9534819568
 H       -14.2084902346        7.2404361906        2.7913150012
 H       -14.3805555386        7.5547409080        1.1793219848
 H       -12.0046946929        4.3275731371       -0.1950295717
 H       -13.6101464042        3.7345690549       -0.0504523529
 H       -12.4023163161        2.8563751260        0.9260029330
 H       -15.1693911214        5.0045150928        1.5626399850
 H       -14.6887077783        4.9637778732        3.3075370937
 H       -14.6349458171        3.4946567425        2.3847122459
 H        -9.7187815618        6.0947112459        8.7253770249
 H       -10.0338911984        4.6642026791        7.8548758795
 H       -11.4510135139        5.7705126252        8.3297322944
 H       -11.7560527685        7.9734373114        7.4640073353
 H       -10.6314959318        8.6191554716        6.2292403236
 H       -10.0806121774        8.4041044480        7.8712389244
 H        -4.7869414526        6.1536183092        2.7572293445
 H        -5.1885384203        7.5939048521        1.8611496823
 H        -4.4517308277        6.1284117773        1.1249324581
 H        -8.1242790019        6.6495262627       -0.2065635268
 H        -6.4395561072        6.4263714847       -0.6463322857
 H        -6.8674892824        7.8143672965        0.2611909724
 H        -5.5529983515       -0.8460735306        1.1173242290
 H        -6.9944906189       -1.2178550408        0.2673297845
 H        -7.0427965728       -0.1054059526        1.5501544304
 H        -5.2058402546        0.6986889659       -2.3141921826
 H        -6.4349562479       -0.4249222648       -2.2879105317
 H        -5.0035004885       -0.8986866692       -1.5709956892
 H        -6.9295989198        5.2424481256       -3.2824992138
 H        -6.9826569422        5.1307248308       -5.0503987255
 H        -6.8059178445        3.5907128818       -4.1196984133
 H        -9.5160310666        6.3066713904       -4.2560806039
 H       -10.6483664609        5.1256609975       -4.9388482587
 H        -9.1224505528        5.6251669760       -5.8414414542
 H       -11.0666884959       -0.8225656700       -8.4633961336
 H       -11.7755698653       -2.1908860334       -7.6308548143
 H       -10.5444205571       -1.3255377270       -6.8282079652
 H       -13.9371926894        0.8567041205       -8.0103807734
 H       -14.6408419487       -0.6308565359       -7.5348316367
 H       -13.6158072784       -0.6586335892       -8.8241293557
 Na       -9.8049148077        5.0055423550        0.3775219635
