117

 C       -13.3937444323       -2.0742803121       -5.1105950877
 C       -12.9969447308       -0.6240951424       -5.4069841212
 O       -12.9854740816        0.2061289571       -4.5422519441
 C       -12.5744908264       -0.3189190482       -6.8849225531
 C       -11.8420214409        1.0740150066       -6.8420361801
 O       -12.3224486106        2.0665646998       -7.3578787308
 C       -10.5964482241        1.2759676769       -6.0465184669
 C       -10.1866300790        2.6747881422       -5.9068499081
 C        -8.9781633052        2.8914161147       -4.9441363013
 O        -8.2771441128        1.9380063917       -4.7728459894
 C        -8.8084597504        4.2584131551       -4.1760677389
 C        -9.3086130671        4.1626894183       -2.6815299303
 O        -9.6113878934        5.2318343469       -2.1031155821
 C        -9.2178076327        2.8710848708       -1.8949821387
 C        -7.7278320215        2.2049201038       -1.9018853335
 C        -7.6117636647        1.1504758128       -0.8096068093
 O        -8.6666660998        0.7206272765       -0.3328997110
 C        -6.2495579880        0.6048579763       -0.3907479920
 C        -5.4155825016        1.8422726274        0.0821196894
 O        -4.7981483385        2.5056452957       -0.6850143280
 C        -5.5574274983        2.2335561228        1.5715505057
 C        -5.3688191143        3.7611300343        1.6545329899
 C        -6.5912408892        4.5441670719        1.2352650242
 O        -7.5219027332        3.9868447543        0.6618168885
 C        -6.6495153469        6.1313682231        1.4352462750
 C        -7.7354258647        6.3283222230        2.6006834232
 O        -8.9029871359        6.0017707798        2.3631579041
 C        -7.4274134203        7.0453895413        3.8995050228
 C        -8.7035069317        7.3478387799        4.6927979940
 C        -8.9102344902        6.4554778268        5.9236039315
 O        -8.0763459530        5.5828569930        6.1824290687
 C       -10.2857071862        6.5511305109        6.7002763480
 C       -11.3078546286        5.9729227123        5.6670186114
 O       -12.1816073353        6.6548495008        5.1266932848
 C       -11.3369933790        4.4649010015        5.3898790961
 C       -12.3639482073        4.0576489240        4.3330200642
 C       -11.9746031559        4.3896004221        2.8792335620
 O       -10.8033398010        4.2701461081        2.5478434550
 C       -13.0291256846        4.8470614094        1.7229130171
 C       -12.6989658691        6.3292815642        1.1972064193
 O       -11.6517103949        6.5817846471        0.5896128883
 C       -13.5563002564        7.4898262338        1.7180834703
 C       -12.8141379443        3.9613153937        0.5170686525
 C       -14.5072824151        4.6600012081        2.2462936203
 C       -10.3073957277        5.6545744348        7.9833927554
 C       -10.7012581104        8.0054762318        7.0394660017
 C        -5.3175961135        6.6193568522        1.8932977355
 C        -7.1014057406        6.8350182308        0.1536656844
 C        -6.5491749632       -0.4603145182        0.7731180367
 C        -5.7177702273       -0.1616119352       -1.5508414677
 C        -7.2877111714        4.6074732380       -4.0814154531
 C        -9.6035646645        5.4046706419       -4.9185044948
 C       -11.5768978996       -1.3543471644       -7.4701748253
 C       -13.8153578940       -0.2515419415       -7.8249415430
 H       -14.4423398447       -2.1764676544       -5.2715786021
 H       -13.3072104360       -2.1089836148       -4.0241547914
 H       -12.8993198508       -2.9069578341       -5.6020911823
 H        -9.7263630243        0.6692134813       -6.3523582234
 H       -10.7173449211        0.9545365893       -5.0615691436
 H       -11.0336866174        3.2874424155       -5.5855226857
 H        -9.9457983930        3.2317012929       -6.8068262081
 H        -9.8144988117        2.0397319273       -2.3506167391
 H        -9.5090423397        3.1816479709       -0.8682128165
 H        -6.9786303635        2.9440977116       -1.5928305952
 H        -7.4447728684        1.9584549451       -2.8590259371
 H        -4.8541272877        1.7376280689        2.2689204603
 H        -6.5459418535        2.0968839541        1.9370133609
 H        -4.5433081943        4.1386678451        1.0878790286
 H        -5.1948877955        3.9899904645        2.7489433201
 H        -6.9476242387        8.0207480772        3.7166367598
 H        -6.8168284918        6.3952066118        4.5670330947
 H        -9.5696915792        7.2563872588        4.0598955651
 H        -8.5369183644        8.3647466948        5.1263129156
 H       -11.5037153513        3.8436654188        6.2818716139
 H       -10.3322591777        4.2201189722        5.0408099845
 H       -13.2751311126        4.6568255633        4.5861513038
 H       -12.6411663279        3.0429706870        4.4370202166
 H       -12.8962242495        8.3675863580        1.8224802145
 H       -14.1360877637        7.2563137125        2.6194181237
 H       -14.3374444966        7.7551934457        1.0721808870
 H       -11.7708540228        4.0820477111        0.0985725177
 H       -13.4619300951        4.2757777851       -0.4089279220
 H       -13.0216940923        2.8738668098        0.7057482551
 H       -15.1826986456        4.9399686296        1.4564271763
 H       -14.6974947173        5.2790354331        3.1614594635
 H       -14.6583744610        3.6150939082        2.5386999983
 H        -9.5235646037        6.0150895066        8.6442438138
 H        -9.9266561657        4.7086669137        7.7584033376
 H       -11.2436067996        5.6088181352        8.5471483597
 H       -11.7408698165        7.9904957373        7.3118093113
 H       -10.5985140535        8.7076695397        6.1838871125
 H       -10.1787025654        8.4486145837        7.8300644778
 H        -5.0151924280        6.1829485175        2.8092010286
 H        -5.2998859923        7.7353669403        2.0167131255
 H        -4.4748842655        6.2695346919        1.2747579379
 H        -7.9740325819        6.5406281416       -0.3779459348
 H        -6.3125148040        6.7851281149       -0.5673235087
 H        -7.1588391636        7.8833320526        0.3761717140
 H        -5.7041464104       -1.1567434068        0.8898584647
 H        -7.3694826975       -1.0746221404        0.3922172382
 H        -6.8089035342       -0.1986801529        1.7851503245
 H        -5.1795635859        0.4275964891       -2.3139272427
 H        -6.4627919895       -0.6397931121       -2.0620216534
 H        -5.0683384933       -0.9655721091       -1.2262856728
 H        -7.0379429058        5.2138389684       -3.2172801292
 H        -7.0103520282        5.1978986276       -4.9887371287
 H        -6.7522459653        3.6148103659       -4.1424748295
 H        -9.2925179787        6.3318113370       -4.4958227980
 H       -10.6938072680        5.2933280384       -4.7227875563
 H        -9.2640538190        5.3977841518       -5.9400610268
 H       -11.3540366975       -1.1968586944       -8.5341096963
 H       -11.8737025362       -2.3676576888       -7.3393673421
 H       -10.6099601950       -1.2595665514       -6.9544289692
 H       -13.9322366370        0.7309023356       -8.3031151702
 H       -14.6999963441       -0.4712028321       -7.2416787045
 H       -13.8101556445       -1.0310128148       -8.5316800695
 Na       -9.8003535865        5.0761295818        0.5100778673
