117

 C       -13.4089516810       -2.1345171578       -5.0621252530
 C       -12.9713398095       -0.7438478758       -5.3639420936
 O       -13.1394811086        0.1882010790       -4.5566941844
 C       -12.5272169566       -0.3268338553       -6.8813163208
 C       -11.8364417046        1.1439081241       -6.9208002795
 O       -12.3544350929        2.1035020331       -7.4623704352
 C       -10.5356727339        1.2633520073       -6.1423274824
 C       -10.1413372549        2.7049693214       -5.9183131599
 C        -9.0284389417        2.9100430963       -4.8723474702
 O        -8.2718097347        1.9534337203       -4.6482974164
 C        -8.8000724053        4.2209332416       -4.1380520186
 C        -9.2468576827        4.1764069477       -2.6106439125
 O        -9.6167741408        5.1821200647       -2.0698307978
 C        -9.2047200971        2.8773312077       -1.8739566021
 C        -7.8223122915        2.2372213228       -1.8668547547
 C        -7.7433171066        1.1339503491       -0.7966026358
 O        -8.7257597936        0.7091165476       -0.2560469465
 C        -6.2823722693        0.4263743230       -0.4014307004
 C        -5.4787348681        1.7256239925        0.1291173532
 O        -4.7910984981        2.2743924704       -0.6937885333
 C        -5.6527647329        2.2309331282        1.5779250219
 C        -5.3565300325        3.7840383686        1.7577862191
 C        -6.5648408823        4.6371518703        1.2249898778
 O        -7.4820549819        4.0921828498        0.6450988339
 C        -6.5680609715        6.2063127379        1.5225998890
 C        -7.7872805529        6.4279072195        2.5738299592
 O        -8.9150530395        6.1709186054        2.3211570633
 C        -7.3369904729        7.0728565232        3.8459032677
 C        -8.6562269952        7.4199485089        4.7113644312
 C        -8.8845807189        6.4478807104        5.8433219233
 O        -8.1667070664        5.5339276105        6.1476574986
 C       -10.2942209945        6.5191883936        6.6155489474
 C       -11.4232605579        5.9328955627        5.7074188323
 O       -12.1875311371        6.6779326481        5.1551216334
 C       -11.4368151758        4.4493583133        5.4204012931
 C       -12.3851014506        4.1733087736        4.2734147121
 C       -11.9642126453        4.4683776468        2.7898406070
 O       -10.7948069578        4.2752678534        2.4474945320
 C       -12.9745959464        4.8376687370        1.6954646607
 C       -12.5527364128        6.2741942886        1.3523867268
 O       -11.5880293101        6.4371337436        0.6139273515
 C       -13.5221262441        7.4643945644        1.5109100380
 C       -12.9378438686        3.9099911044        0.4445178018
 C       -14.4478257001        4.8487417511        2.1667504579
 C       -10.1170697944        5.6550182091        7.9480909845
 C       -10.6365113909        8.0119563713        6.9710468571
 C        -5.2645374781        6.8186473249        1.9883125827
 C        -7.0575290202        6.9085246565        0.2149576288
 C        -6.5735498620       -0.4799526877        0.8274892864
 C        -5.6206448173       -0.2412849694       -1.5445149093
 C        -7.3262661273        4.5967549820       -4.1426489808
 C        -9.5636158676        5.4083113183       -4.8541916966
 C       -11.6870546290       -1.5014558691       -7.4652967406
 C       -13.8675614492       -0.2979919161       -7.6811546679
 H       -14.5165025953       -2.1259692935       -4.8262062461
 H       -12.9840639079       -2.4132597562       -4.1462963114
 H       -13.1704734284       -2.8760575300       -5.8691120726
 H        -9.7412812623        0.8166475797       -6.6960062556
 H       -10.4755824187        0.6850394178       -5.1920375190
 H       -10.9624963292        3.3551705787       -5.7199510215
 H        -9.7841008207        3.1743487384       -6.8141231236
 H        -9.8121043169        1.9719546085       -2.2926325290
 H        -9.4525286672        3.2086723995       -0.8362933225
 H        -6.9450553872        2.9185378476       -1.7105072544
 H        -7.6392321765        1.8399021992       -2.8576415988
 H        -4.8854555661        1.7243210121        2.1334648652
 H        -6.5677947231        2.0016992061        2.0967195916
 H        -4.4793259518        4.0828702966        1.1415035566
 H        -5.0972637420        3.9706644367        2.8242724054
 H        -6.7569855411        7.9727585431        3.6744379628
 H        -6.8015273431        6.3133973554        4.4781051676
 H        -9.5801246606        7.2608227047        4.1066695189
 H        -8.6099932843        8.4315346491        5.1313542509
 H       -11.7138591985        3.8718256142        6.2927673271
 H       -10.4080901929        4.1262572583        5.1283016683
 H       -13.3031359012        4.6753549748        4.5279934624
 H       -12.6053646758        3.1524367228        4.2509821711
 H       -12.8932240478        8.3979682826        1.4561136802
 H       -14.1401740842        7.5041924990        2.4012793020
 H       -14.2760291479        7.4895812473        0.7291613703
 H       -11.9232170459        3.5314616531        0.2631919397
 H       -13.1669546523        4.4351765739       -0.5027917442
 H       -13.6022190970        3.0877975780        0.5580605259
 H       -15.0837806621        4.9906745574        1.2737878705
 H       -14.6185351292        5.5956808638        2.8891962197
 H       -14.6860834400        3.8349363863        2.6094712147
 H        -9.3908695751        6.0959198725        8.6013852440
 H        -9.7334948616        4.7001266859        7.7368136520
 H       -11.0006988470        5.5658295334        8.5314455538
 H       -11.6211679439        8.0698330864        7.3495476012
 H       -10.5874083513        8.6982732531        6.1526638375
 H        -9.9613339408        8.3751973679        7.7109876798
 H        -4.7621318597        6.4376682678        2.9052104226
 H        -5.4497272818        7.8940983888        2.1098657211
 H        -4.5034278706        6.6517937887        1.2940833446
 H        -7.7956147591        6.2662189149       -0.2684632592
 H        -6.3283188756        7.0413575022       -0.5294777250
 H        -7.4917724220        7.8435215611        0.3952226575
 H        -5.7206546088       -1.1807723666        0.9835142169
 H        -7.4888482168       -1.1150278163        0.7035247713
 H        -6.6594766169       -0.0312359880        1.8457775077
 H        -5.2664766844        0.4469377346       -2.2765218151
 H        -6.2110494545       -1.0297792692       -2.1132090361
 H        -4.7615909294       -0.7578213214       -1.1855162774
 H        -7.2907441915        5.2992327368       -3.3040584229
 H        -7.0103056011        5.1409741608       -5.0398610464
 H        -6.6564927133        3.7319586509       -4.0400276552
 H        -9.0888197424        6.3339416778       -4.5495495088
 H       -10.5838568603        5.4668550635       -4.5463120881
 H        -9.3359849923        5.3090316685       -5.9299375215
 H       -11.4407086283       -1.4266813632       -8.4887382186
 H       -12.1795778256       -2.4813282846       -7.3012310622
 H       -10.7306382373       -1.5437257788       -6.9416313279
 H       -13.9263218982        0.4887431259       -8.4698883932
 H       -14.7124650512       -0.1931589926       -6.9719034069
 H       -14.0692379004       -1.3146485960       -8.1521819655
 Na       -9.7797764167        5.1186359952        0.5066765727
