117

 C       -13.2959242029       -2.0931924146       -4.8214878041
 C       -12.9910570668       -0.6550590094       -5.2759509965
 O       -12.9290865305        0.2947357685       -4.5357891555
 C       -12.7655063556       -0.4025968758       -6.7786690955
 C       -12.0296171549        0.9579729822       -6.9093274532
 O       -12.3560982569        1.8298221336       -7.6925621473
 C       -10.7774637475        1.1445472068       -6.0544355743
 C       -10.6122935175        2.6092629509       -5.5745557265
 C        -9.2828539500        2.6964251457       -4.7827889095
 O        -8.4348242507        1.8502642541       -4.8541844631
 C        -8.9594617009        4.0791100810       -4.0105713400
 C        -9.2401138111        3.8912446788       -2.4829778272
 O        -9.2288018944        4.8484132562       -1.7024886145
 C        -9.3155396346        2.3839684560       -1.9498746648
 C        -7.9850613210        2.0930335801       -1.3277970166
 C        -7.9510163472        0.9290899282       -0.3209027641
 O        -8.9769021648        0.4303304951        0.1168959626
 C        -6.5195615053        0.4839795348        0.0290260535
 C        -5.5792426607        1.7131330500        0.4160902049
 O        -4.5436121118        1.9348157357       -0.2181197806
 C        -5.9828241601        2.4138229803        1.6382505058
 C        -5.4748284935        3.8738169804        1.6899635612
 C        -6.5303991839        4.8797498670        1.2587463291
 O        -7.5879302916        4.5108658642        0.7449133032
 C        -6.2751715820        6.4381476927        1.5545986977
 C        -7.4200176119        6.9436335784        2.4715646465
 O        -8.5827882232        6.8054949775        2.0207662440
 C        -7.1025414722        7.3435405998        3.9012605029
 C        -8.3333093971        7.5991349863        4.8217282397
 C        -8.8490706869        6.3584184708        5.5072120808
 O        -8.4219532060        5.2201093472        5.2684093641
 C       -10.1443821146        6.4362933821        6.4003853762
 C       -11.3831403793        6.0314985042        5.4601591181
 O       -12.2131688783        6.8391714442        5.0116143481
 C       -11.4171606702        4.5913182569        5.0300981712
 C       -12.5676564324        4.3102447038        4.0382225528
 C       -12.0681728983        4.5370175782        2.5637543526
 O       -10.9243424447        4.2075804403        2.3557933929
 C       -13.0575838512        5.0059244477        1.4716454137
 C       -12.4915582124        6.4439519888        0.9802165625
 O       -11.4056182480        6.4310479758        0.4298974995
 C       -13.3772681233        7.6586564168        0.7752776197
 C       -13.0180930114        4.0216062087        0.2744212067
 C       -14.4330769292        5.1158164596        2.0481198857
 C       -10.0388634078        5.4560666582        7.6209201954
 C       -10.4446118864        7.8924037709        6.8713923325
 C        -4.8341808689        6.7027051520        2.1223024567
 C        -6.3893876717        7.1095335596        0.2178300991
 C        -6.4991428383       -0.4645458366        1.2262499803
 C        -5.7615381844       -0.3214938497       -1.1439935663
 C        -7.4095427095        4.4190854772       -4.2027583247
 C        -9.8274996032        5.1863156601       -4.6630150556
 C       -11.6996316020       -1.4036895723       -7.4001474012
 C       -14.0566695251       -0.2921701860       -7.6111899691
 H       -12.4861377857       -2.2873441068       -4.1251279840
 H       -13.3171632734       -2.9549810129       -5.5786587905
 H       -14.2361224041       -2.0983451507       -4.3385075143
 H        -9.9717782118        0.8673296699       -6.7241581890
 H       -10.7649513920        0.4263319882       -5.2060342779
 H       -11.5038966369        2.8892976205       -5.0669803703
 H       -10.5841462880        3.2436533237       -6.4619496183
 H        -9.5562303109        1.6887220305       -2.7604443897
 H       -10.1254646463        2.2360206870       -1.1157520146
 H        -7.5981211437        2.9833979085       -0.8459419175
 H        -7.2084941940        1.8271086731       -2.1783314696
 H        -5.6997003035        1.8543639300        2.4867445384
 H        -7.0421518982        2.4031630536        1.8372387859
 H        -4.4985206178        3.9277234933        1.1089883157
 H        -5.2686395083        4.1618682272        2.7092813439
 H        -6.7005605625        8.3758641835        3.7893538554
 H        -6.3661430370        6.6540027025        4.3438488644
 H        -9.1050272299        8.1520846602        4.2204520173
 H        -8.1598132600        8.2988943575        5.6464160727
 H       -11.5378893409        3.9067695189        5.8902663855
 H       -10.4352015257        4.4327269506        4.5767612062
 H       -13.3754095937        4.8446890112        4.3689770874
 H       -12.8275494069        3.2627582540        4.1388335121
 H       -13.3210248981        8.0294270284       -0.2163024808
 H       -12.9273181972        8.5028720989        1.3134323500
 H       -14.4290515744        7.5026878225        1.1068980215
 H       -11.9892600937        3.8570021111       -0.0600557983
 H       -13.6625473917        4.4157801007       -0.5131931756
 H       -13.4039802295        3.0025773881        0.5607763526
 H       -15.1508502844        5.3983307983        1.2777588294
 H       -14.3680462766        5.9074777776        2.8228704242
 H       -14.7153366386        4.1438893131        2.3497624455
 H        -9.5296940787        5.9676778026        8.3719286042
 H        -9.5731019710        4.5045985158        7.4013510866
 H       -10.9744755185        5.1912039473        8.0346360685
 H       -11.3681758512        7.9966038086        7.4087562143
 H       -10.4701226693        8.5657022260        6.0638405081
 H        -9.6503269413        8.2139499770        7.5448412805
 H        -4.6480812310        6.2222225702        3.0918235823
 H        -4.6605264837        7.7432073671        2.3300722846
 H        -4.0425481583        6.4661150545        1.3400727574
 H        -7.3587001617        7.3333220882       -0.0925089523
 H        -5.9798214671        6.5299582389       -0.5759808485
 H        -5.9022004713        8.0621697836        0.2381906964
 H        -5.5441881914       -0.7524094466        1.6955591904
 H        -7.0145508852       -1.4038780606        0.9654587250
 H        -7.1392686905       -0.0820242182        2.0441544775
 H        -5.4447792855        0.3918754497       -1.9080710033
 H        -6.3940907867       -1.0181457154       -1.6195912868
 H        -4.8437443905       -0.8381828115       -0.8208726587
 H        -7.2157817417        5.2411877553       -3.5105128200
 H        -7.1535784303        4.5947804471       -5.2624512194
 H        -6.8115218711        3.5438985789       -3.9830950645
 H        -9.7065509795        6.1993829399       -4.2189854542
 H       -10.8845114413        4.9422788951       -4.7159533236
 H        -9.5050390332        5.1967794964       -5.6973724046
 H       -11.4768087685       -1.1201144319       -8.4377440971
 H       -12.1127584316       -2.4040307586       -7.4378127134
 H       -10.7939461805       -1.3848646128       -6.8324869570
 H       -14.4496137538       -1.2803833755       -7.8224038773
 H       -13.8443834690        0.3114950029       -8.5096956644
 H       -14.8783850695        0.1379312703       -7.0518857906
 Na       -9.7425849263        5.0729197593        0.7010170376
