117

 C       -13.3530339746       -2.0420555582       -4.6950464256
 C       -13.0056738856       -0.6518412375       -5.2823446205
 O       -12.9147808667        0.3101907285       -4.5458671128
 C       -12.7643229059       -0.4519312400       -6.8044541923
 C       -12.0368285616        0.9816910466       -6.8711495836
 O       -12.4568261687        1.7560035154       -7.7107692071
 C       -10.7353840400        1.1014463667       -6.0313702632
 C       -10.6339200673        2.5454399161       -5.4250213173
 C        -9.2893114936        2.6792003175       -4.8377419431
 O        -8.3857483367        1.8819931859       -4.8845850549
 C        -9.0119577279        4.0116553096       -4.0003234560
 C        -9.2791720536        3.7761072719       -2.4392053858
 O        -9.3104958538        4.8074025377       -1.7407950561
 C        -9.3346786623        2.4500604416       -1.8554825856
 C        -7.9566966995        2.0492262353       -1.3410569422
 C        -7.9293316644        0.8619728784       -0.3087855128
 O        -8.9415473404        0.4247950888        0.1951378944
 C        -6.4607478563        0.4112863782        0.0570819494
 C        -5.5719759734        1.6211024526        0.3997157898
 O        -4.5874509307        1.8912240281       -0.1967295708
 C        -5.9913198444        2.4678310913        1.7078096045
 C        -5.4572058206        3.9382726057        1.8906537326
 C        -6.4597647657        4.8845049769        1.4179829580
 O        -7.4162778975        4.5501276496        0.7944280062
 C        -6.2003556673        6.4010403237        1.5422546991
 C        -7.4112276755        6.8928077977        2.5109759505
 O        -8.5381341591        6.8718438089        2.1176091576
 C        -7.0469762857        7.3508519975        3.8983164867
 C        -8.3179008189        7.6298572824        4.7183312656
 C        -8.8919621399        6.3267598572        5.3125640161
 O        -8.3766696518        5.2384487111        5.0400167070
 C       -10.1884151643        6.4133003059        6.3212000268
 C       -11.3607427803        6.0464820460        5.4150430997
 O       -12.0808283335        6.9242302647        4.9919338102
 C       -11.4761930558        4.5383964935        5.0164520756
 C       -12.6260735489        4.2716583877        3.9506006664
 C       -12.1083278286        4.5073496564        2.5758642892
 O       -10.9463708079        4.2564696005        2.2816663023
 C       -13.0893614001        5.0770066160        1.4227435747
 C       -12.5496529871        6.4679027399        0.7062392374
 O       -11.3992921073        6.6273934344        0.3249286411
 C       -13.4419979025        7.6252315972        0.7776425359
 C       -13.0185608314        4.0659789846        0.2292766290
 C       -14.5392940150        5.1629391390        2.0226933281
 C        -9.9244339069        5.4609819271        7.5319616542
 C       -10.4079122101        7.9169393179        6.8412132098
 C        -4.8045632272        6.6643114985        2.1878948115
 C        -6.3314520787        7.0686364177        0.1580661956
 C        -6.5614217625       -0.4606130212        1.3786503319
 C        -5.7790209773       -0.3526151728       -1.0332318088
 C        -7.5230110994        4.3363920209       -4.1096095539
 C        -9.8541907365        5.2087424834       -4.4994005888
 C       -11.7443105326       -1.3849213463       -7.5552289171
 C       -14.0566612802       -0.3950743322       -7.5955318260
 H       -12.4214504984       -2.4962840935       -4.3533045173
 H       -13.8933919723       -2.7546951303       -5.3503368526
 H       -14.0565181364       -1.8293452249       -3.8421711255
 H        -9.9039966514        0.8550236979       -6.7756976143
 H       -10.7398559803        0.3492110561       -5.2689922817
 H       -11.4434173603        2.6410836492       -4.6950574878
 H       -10.8065100462        3.2824641672       -6.2162964419
 H        -9.6822860964        1.7488474994       -2.5816380677
 H       -10.1204350156        2.5043678453       -1.0549074264
 H        -7.5255842927        2.9078873939       -0.7013532095
 H        -7.2962890622        1.9645840098       -2.2558251609
 H        -5.8165219699        1.8482696316        2.6261917972
 H        -7.0634905491        2.5669069127        1.9008177202
 H        -4.5564360625        4.1180416040        1.2517377724
 H        -5.1811427352        4.1987656787        2.9297126509
 H        -6.4129333602        8.2551630496        3.9117298142
 H        -6.5404470238        6.5278466991        4.3856346211
 H        -9.0670131695        8.2444768789        4.1999007779
 H        -8.1398394181        8.2577378235        5.6313434623
 H       -11.6452475823        3.8671230163        5.8871915774
 H       -10.5133919571        4.3238456966        4.5880405552
 H       -13.4775778044        4.9420536688        4.2057062338
 H       -13.0071525476        3.2552670469        4.0551414913
 H       -13.5902145736        8.2140330757       -0.1689104002
 H       -12.8980676722        8.3795215389        1.4098632962
 H       -14.3740039969        7.3556966608        1.1981320740
 H       -12.2411132355        4.2888372155       -0.4142642147
 H       -13.9732857511        4.1287417109       -0.2744844677
 H       -12.8715501835        3.1075153375        0.5186562369
 H       -15.2761267300        5.4808335162        1.3069066121
 H       -14.5379646910        5.8621259141        2.8995469528
 H       -14.7401067782        4.1310228913        2.2527740716
 H        -9.4188101971        5.9985967908        8.3127202787
 H        -9.4136711119        4.5965911525        7.2814563322
 H       -10.8531408373        5.0592651013        7.9144783129
 H       -11.3657440299        8.0612218223        7.2864284785
 H       -10.2626693301        8.6962933713        6.0812698840
 H        -9.7332521736        8.0717819671        7.6166829340
 H        -4.7285749845        6.1455309462        3.0948124219
 H        -4.6638182179        7.7230043873        2.4597611160
 H        -3.9756372084        6.5145838036        1.4671664322
 H        -7.2806645965        7.2046246394       -0.2752965025
 H        -5.7349904647        6.5228797858       -0.5477693715
 H        -5.9065840033        8.0624815955        0.1962613586
 H        -5.6205097135       -0.9305841514        1.7949584327
 H        -7.2480675594       -1.3347662652        1.2530705644
 H        -7.0371726037        0.1027106766        2.2226706463
 H        -5.2600112026        0.3743283203       -1.7323246158
 H        -6.4692358890       -0.9017472077       -1.6067522741
 H        -4.9789751518       -1.0388759895       -0.6725333802
 H        -7.1582260308        4.8259626802       -3.2335924171
 H        -7.3136986174        4.8396786853       -5.0604872805
 H        -7.0407438910        3.3552428420       -4.2570614372
 H        -9.4094795673        6.1485477652       -4.2256056879
 H       -10.9204228595        5.1583539164       -4.1468665991
 H        -9.9625688445        5.1804475667       -5.5714507491
 H       -11.4804946972       -0.9915065761       -8.5644981515
 H       -12.1152672506       -2.3592435553       -7.6644389011
 H       -10.8556873494       -1.4150510164       -6.9223901518
 H       -14.7801302819       -1.2278602663       -7.3352815679
 H       -13.8418406724       -0.2496218550       -8.7029301010
 H       -14.6377611439        0.4641034479       -7.2354714292
 Na       -9.6740651124        5.1628249606        0.6426271342
