117

 C       -13.5936055877       -2.0613375797       -4.6115736544
 C       -13.0616326652       -0.7199130412       -5.1614811763
 O       -12.9660684515        0.2608948811       -4.4161280521
 C       -12.8002624153       -0.5136697122       -6.7402006148
 C       -12.1183489264        0.9695795994       -6.9053313285
 O       -12.6710088844        1.7945244833       -7.5593827285
 C       -10.7086578837        1.1831352223       -6.3882457726
 C       -10.7289845090        2.2176642034       -5.1817750339
 C        -9.3383685672        2.5688226703       -4.6656194854
 O        -8.3464406681        1.8681522464       -4.8277777189
 C        -9.1917923715        3.9549782680       -3.8096396186
 C        -9.4539827735        3.7259723063       -2.3098891142
 O        -9.8795487554        4.6862004515       -1.6717589001
 C        -9.1717248355        2.4425066405       -1.5285551680
 C        -7.7762723670        1.8322420503       -1.3481722920
 C        -7.8296301433        0.8744118006       -0.1287354067
 O        -8.8910682704        0.5746018301        0.3580429225
 C        -6.4725397825        0.3036274093        0.5003420589
 C        -5.6733721569        1.5685419982        0.8573991128
 O        -4.9867781029        2.0324522140        0.0093243851
 C        -5.7145120713        2.2403833804        2.1817682535
 C        -5.2737670252        3.7253401334        2.2070177794
 C        -6.2418892177        4.6278116944        1.4978210453
 O        -7.2199212864        4.3051244828        0.9006020678
 C        -5.9845430812        6.1964499041        1.6086114965
 C        -7.2427361447        6.9212076593        2.4802449759
 O        -8.3673007210        6.7967973274        2.1076054344
 C        -6.8865803329        7.6567549993        3.7498955140
 C        -8.1504907487        7.7758780271        4.7169637474
 C        -8.8289705172        6.3966667779        5.0028726366
 O        -8.4472882800        5.3991422102        4.4348056434
 C       -10.0098994831        6.3908927231        5.9995776671
 C       -11.2576222711        6.1191942896        4.9690219501
 O       -11.9342139107        7.0047709820        4.5689011061
 C       -11.5654684871        4.5919227950        4.6520968504
 C       -12.7035490931        4.4612764748        3.6682281037
 C       -12.1666989670        4.8437361398        2.3331931670
 O       -10.9627435102        4.9365488673        2.1667887783
 C       -13.1046588543        5.2049164467        1.1450248174
 C       -12.6914835054        6.6243372359        0.6565832121
 O       -11.5857422931        6.8075688833        0.2229991503
 C       -13.6573156493        7.8085638487        0.8404549433
 C       -12.9704051844        4.2101310107       -0.0147236654
 C       -14.5778168352        5.0656433510        1.5619600525
 C        -9.7334772059        5.2527875208        7.0166546084
 C       -10.3147459122        7.6639860964        6.7615480637
 C        -4.5714265405        6.4574896637        2.1553744638
 C        -6.1780243450        6.8474307748        0.2050790595
 C        -6.7490158587       -0.5828213934        1.7098310749
 C        -5.5971735885       -0.4092819823       -0.6396897005
 C        -7.6349874696        4.2334615396       -3.8680932623
 C       -10.0126707334        5.0770434496       -4.3858354097
 C       -11.8944547889       -1.6288084234       -7.3376586962
 C       -14.1563953333       -0.4297233799       -7.5330770875
 H       -13.7254656910       -2.8204566463       -5.3812749234
 H       -14.4825620134       -1.9023439208       -4.0522885120
 H       -12.7826396642       -2.5018009219       -3.9239249763
 H        -9.9805664741        1.5647589902       -7.1551027211
 H       -10.4071799167        0.2452201626       -6.0179903220
 H       -11.2146502561        1.7596105453       -4.3491467261
 H       -11.2108360456        3.1106504281       -5.5366421603
 H        -9.8890995071        1.7555120994       -2.0346982607
 H        -9.7146476189        2.5113853761       -0.5408044915
 H        -7.1506856762        2.7425908994       -0.9762467776
 H        -7.3043212534        1.3276957857       -2.2166590769
 H        -5.0723958189        1.7513291153        2.9109889955
 H        -6.6344155570        2.1109162885        2.6984566073
 H        -4.2617190385        3.7529325262        1.7739673565
 H        -5.2191701851        4.0881823235        3.2493129862
 H        -6.4203585670        8.6582160013        3.5602089252
 H        -6.1279530547        7.0609932351        4.2815182358
 H        -8.9469035414        8.4505552373        4.4295305384
 H        -7.9791525018        8.3094721744        5.6757939391
 H       -11.8563490794        4.1725551296        5.6414489869
 H       -10.7476087742        4.0300256718        4.2472940338
 H       -13.5193076970        5.1360665776        3.9475561991
 H       -13.1251872924        3.5012310382        3.6506921973
 H       -13.3105308866        8.7645928707        0.3644799982
 H       -13.7252142306        8.0262759134        1.9055966901
 H       -14.6017806948        7.5760852424        0.4181739573
 H       -11.8830550211        4.1499959414       -0.3202343842
 H       -13.5593616636        4.6566067229       -0.8516268577
 H       -13.3659810402        3.2019391968        0.2205500372
 H       -15.2550037141        5.2897574378        0.7583215750
 H       -14.7482343799        5.7341930573        2.4095993377
 H       -14.6569671186        4.0672021894        1.9803671808
 H        -8.7621132380        5.4398137341        7.4706743369
 H        -9.6274425398        4.3429306484        6.5112468221
 H       -10.5011326880        5.1093840729        7.7781695508
 H       -10.8893466402        7.5355936654        7.6635293588
 H       -10.8000931171        8.3543888043        6.0294054427
 H        -9.4063004965        8.0950860531        7.0774678114
 H        -4.5608073770        5.8983044067        3.0800509090
 H        -4.3892337844        7.5584687312        2.3506896053
 H        -3.7918912232        6.1369389447        1.4459282913
 H        -7.0355926266        6.4686031375       -0.3261486031
 H        -5.3354891953        6.7199794779       -0.4267100904
 H        -6.3477118874        7.9101731885        0.2200777122
 H        -5.8535009984       -0.9510095265        2.1886326902
 H        -7.2782837484       -1.4879050632        1.4466126995
 H        -7.3710306235       -0.0784566574        2.4347458491
 H        -5.3765770344        0.1259268085       -1.5461468468
 H        -6.0163479058       -1.3941155805       -0.8944837909
 H        -4.6887596778       -0.6277337737       -0.1271580389
 H        -7.4621778345        5.2251923603       -3.4483168759
 H        -7.3622975172        4.3184950474       -4.9274706258
 H        -7.0756824388        3.5395606431       -3.2125962865
 H       -10.0986158722        5.9425926132       -3.7746645333
 H       -11.0128602565        4.7050947650       -4.6975556738
 H        -9.5752526022        5.4337224868       -5.3175447189
 H       -11.5102049912       -1.2629345806       -8.3025142137
 H       -12.4158037185       -2.5382814513       -7.4755564793
 H       -11.1043553132       -1.8563665720       -6.6156950479
 H       -15.0263201671       -0.7988707274       -7.0016849622
 H       -14.1416356736       -0.9909169888       -8.4448590943
 H       -14.3306343463        0.5948568313       -7.7370454287
 Na       -9.4839065817        5.6882703704        0.5051313520
