117

 C       -13.6525915594       -2.0023437658       -4.5614375104
 C       -13.1736065572       -0.7187266527       -5.1392944998
 O       -12.9057112791        0.2019220688       -4.3403831244
 C       -12.8429831689       -0.4069364334       -6.6726650938
 C       -12.1294392777        0.9751388153       -6.8881318844
 O       -12.6335931259        1.8839151103       -7.5024545032
 C       -10.7032519870        1.0686026889       -6.3097563954
 C       -10.7645741447        2.1529976814       -5.1530819796
 C        -9.3781367645        2.4717815851       -4.6459632082
 O        -8.3873672444        1.7596594759       -4.7548166149
 C        -9.1823234349        3.8422586403       -3.8588156702
 C        -9.5189481451        3.6744258828       -2.2883986734
 O        -9.8889589316        4.6807485009       -1.7380623950
 C        -9.3311448451        2.3771519134       -1.4958645992
 C        -7.8718540256        1.8965130739       -1.3067301228
 C        -7.8502759021        0.8652750147       -0.0937846454
 O        -8.8787898089        0.5570871100        0.4719101093
 C        -6.4818142635        0.3338937502        0.5598861465
 C        -5.6026642449        1.6411811403        0.8761345456
 O        -4.9555921866        2.2046690967       -0.0553011187
 C        -5.7584045866        2.1997719979        2.2925493692
 C        -5.3570245577        3.6832131931        2.3227973057
 C        -6.3652927375        4.6259922064        1.5869217232
 O        -7.3304442968        4.1923425371        0.9200135580
 C        -6.0345766452        6.2162669683        1.6260950423
 C        -7.1208860078        6.8498822222        2.5233192385
 O        -8.3003761866        6.8744849156        2.1036212663
 C        -6.8122299362        7.6148550976        3.7363100087
 C        -8.0462243215        7.8052958099        4.6134952149
 C        -8.7718216031        6.4131501453        4.9438826319
 O        -8.3909514369        5.4089658757        4.3806677682
 C        -9.9617760712        6.3913224002        5.8749611501
 C       -11.2496547922        6.0734527246        5.0030286841
 O       -11.8529880720        6.9956933300        4.4661590611
 C       -11.5315561779        4.6381847108        4.7106155751
 C       -12.6289446705        4.5101383617        3.6252900973
 C       -12.0892253192        4.8683726289        2.2586204838
 O       -10.8850490635        5.1000615597        2.2035166153
 C       -13.1077876910        5.2215813454        1.0203667892
 C       -12.6926544186        6.6689084379        0.5890441164
 O       -11.5883141566        6.9620062450        0.1862271715
 C       -13.7291931934        7.7667345619        0.8939933083
 C       -12.8702856910        4.2616349514       -0.1870789581
 C       -14.7046079581        5.1546828168        1.3944187454
 C        -9.7474850095        5.1287823415        6.8575652354
 C       -10.3027753860        7.6689854312        6.6926572357
 C        -4.6051869610        6.4701069280        2.1618813520
 C        -6.0442957241        6.7187056900        0.1525335402
 C        -6.7858433409       -0.5289403710        1.7257808022
 C        -5.5332081793       -0.4159875244       -0.4503140964
 C        -7.6581431047        4.2931803866       -3.8424151986
 C       -10.0046629712        4.9891347404       -4.3986873879
 C       -11.8292256596       -1.4419747960       -7.2973538174
 C       -14.1616151848       -0.5841242205       -7.4885247843
 H       -14.2696541093       -2.6629692053       -5.2425032559
 H       -14.2564477989       -1.6858451178       -3.7237763939
 H       -12.7977116606       -2.6399843503       -4.2142736773
 H       -10.0593326631        1.5711654362       -7.0503326204
 H       -10.2395358082        0.1336348447       -5.9626539824
 H       -11.2211487717        1.7245295174       -4.2539151872
 H       -11.2446420156        3.0240234951       -5.5713362156
 H        -9.9616008582        1.6816588880       -2.1502616574
 H        -9.8954800643        2.3743998814       -0.6255790971
 H        -7.1953873828        2.8295487207       -1.1824526900
 H        -7.5031545995        1.2340055962       -2.1049299413
 H        -5.1332049776        1.7131096661        3.0961574966
 H        -6.7788782441        1.9886846446        2.6897022468
 H        -4.4691700567        3.6620469642        1.7065144374
 H        -5.0904178501        4.1034117774        3.3538802263
 H        -6.4775857808        8.6073891812        3.4213155726
 H        -5.9658966889        7.1794911786        4.2898640724
 H        -8.7729203406        8.3933859854        4.0619157683
 H        -8.0198271815        8.5293435227        5.4367061098
 H       -11.7856965949        4.1762291993        5.6461584380
 H       -10.6214389243        4.1571851700        4.2967819313
 H       -13.5658081459        5.0696904719        3.8994899299
 H       -12.9418335871        3.4618941948        3.5151369535
 H       -13.2670831697        8.7460850576        0.7322648723
 H       -14.1424561259        7.7988187017        1.8870412831
 H       -14.4862186587        7.6969058020        0.0471792992
 H       -11.8510070024        3.9613713845       -0.1749989254
 H       -13.0039442467        4.7782750850       -1.0539415997
 H       -13.5270993515        3.3997823303       -0.1674497778
 H       -15.2620797117        5.2735831870        0.4521745310
 H       -14.9572434099        5.9276200234        2.0390562410
 H       -14.9244730679        4.2268129805        1.9726856212
 H        -9.0168706639        5.3585049362        7.5898671515
 H        -9.2933701725        4.3053411175        6.3094082848
 H       -10.6264405493        4.8247457253        7.3246568866
 H       -11.1313512302        7.5396313039        7.3449874253
 H       -10.4395948876        8.4745908459        6.0373053558
 H        -9.4300019976        7.8521452412        7.3083993143
 H        -4.5221462339        6.0342926100        3.1980858155
 H        -4.4822674843        7.5614285696        2.1739366237
 H        -3.8860265321        6.0204829262        1.5244402791
 H        -7.0531149550        6.5316745890       -0.1913736334
 H        -5.4122721616        6.1927649073       -0.4933781196
 H        -5.8720137840        7.7231902741       -0.0570744089
 H        -5.8717559514       -0.7945791552        2.2903602493
 H        -7.2521347911       -1.5111015716        1.4779156573
 H        -7.5080621063       -0.0200484836        2.4104334529
 H        -5.4164624428        0.1286482187       -1.3642845275
 H        -6.0280826681       -1.4262880313       -0.7295146309
 H        -4.5745657662       -0.6492152083       -0.0061126596
 H        -7.6077290702        5.3841492646       -3.6990572304
 H        -7.2797800067        4.1710673529       -4.8353482451
 H        -7.1277490159        3.8653578283       -3.0071430454
 H        -9.9297419652        5.8318612321       -3.7062022195
 H       -11.0458477683        4.7290748414       -4.4578658563
 H        -9.7376491567        5.4184408760       -5.3826620392
 H       -11.4904355641       -1.0122181722       -8.1895895873
 H       -12.4391364592       -2.3233079144       -7.5275373186
 H       -11.0535141270       -1.8059529853       -6.6471047742
 H       -14.8869077142       -1.3023578003       -7.0578102584
 H       -13.9913397655       -1.0261835588       -8.4690812996
 H       -14.6651537113        0.4246422827       -7.6294379614
 Na       -9.5292544835        5.6110202536        0.5184857969
