117

 C       -13.7032105804       -1.9714910922       -4.7018392356
 C       -13.1413708013       -0.6271218543       -5.0662293985
 O       -12.8385858944        0.2223566481       -4.2815118409
 C       -12.8957052651       -0.4505545026       -6.6750768447
 C       -12.1524007141        0.9306078076       -6.8368226322
 O       -12.6538566778        1.9079920174       -7.4095236881
 C       -10.7441402849        1.0416613738       -6.1979566173
 C       -10.7206103235        2.1471385920       -5.1119783169
 C        -9.3296672086        2.3976809459       -4.5142958744
 O        -8.4582983094        1.6109003890       -4.7009667076
 C        -9.1558930233        3.8112356840       -3.7638618713
 C        -9.5105155285        3.6879811983       -2.2815176178
 O        -9.8621367993        4.6785850402       -1.6707510301
 C        -9.4513592938        2.2545566194       -1.5565041896
 C        -7.9786272219        1.8695673950       -1.2420339927
 C        -7.8790857586        0.8657660919       -0.0931707481
 O        -8.8248096520        0.5402355994        0.5643379632
 C        -6.4688374882        0.4180389877        0.5448830120
 C        -5.7066062763        1.7434039147        0.8646622618
 O        -4.9654969184        2.3966805694        0.1044166983
 C        -5.8215551956        2.2184248484        2.2657574764
 C        -5.4460743024        3.7162078652        2.3703731491
 C        -6.4266027744        4.6182165166        1.6257197992
 O        -7.4428387598        4.1815012988        1.0700343272
 C        -6.0689575245        6.0705839850        1.6078595800
 C        -7.1006949263        6.8808617352        2.3741653991
 O        -8.2357466377        6.9455313439        1.9679454811
 C        -6.7763931203        7.5984690328        3.7802726722
 C        -8.0295100379        7.8053163148        4.5055574196
 C        -8.7070909624        6.4787320372        4.8476725862
 O        -8.2435237985        5.4292659923        4.3848555998
 C        -9.9499923603        6.3508574537        5.8309842110
 C       -11.2021578829        6.0437863010        4.9341302494
 O       -11.7621582265        6.9954991724        4.3999057069
 C       -11.6153908704        4.5780184423        4.7159392111
 C       -12.6685805883        4.4659827686        3.5743953659
 C       -12.1535359206        5.0256849064        2.1928941888
 O       -10.9667482033        5.1397730886        2.0419054739
 C       -13.0251410993        5.3133138032        0.9919720785
 C       -12.7173464995        6.7923685942        0.6379375804
 O       -11.6152503892        7.0147407038        0.1518905067
 C       -13.7484130887        7.8654550983        0.8365328183
 C       -12.6717029498        4.3212270551       -0.2559295404
 C       -14.5257709485        5.1205384581        1.2540200947
 C        -9.7450588742        5.1131576285        6.7610692426
 C       -10.1916984672        7.6513772748        6.6613798512
 C        -4.5983484181        6.4947222628        2.2060584781
 C        -6.0251616428        6.5198770449        0.1363917567
 C        -6.7626021555       -0.4180145448        1.7524736461
 C        -5.6104611122       -0.4997542453       -0.4069566137
 C        -7.6739495957        4.2910275573       -3.8720324147
 C       -10.0533237908        4.9154965374       -4.4266322590
 C       -11.7854271650       -1.4639584661       -7.1622044722
 C       -14.2175447106       -0.5984591017       -7.4094302505
 H       -14.6016146188       -2.2283792764       -5.2859992459
 H       -14.0534380665       -1.8563864091       -3.6172534739
 H       -13.0437863362       -2.7713779758       -4.8612169761
 H       -10.1078632864        1.3805070728       -6.9831543377
 H       -10.2817490488        0.1305078155       -5.7078467060
 H       -11.2480172334        1.6416095627       -4.2623194759
 H       -11.1973426717        3.0687910335       -5.5217946312
 H       -10.1115761112        1.5526338090       -2.0416742977
 H        -9.9418291806        2.4152372095       -0.6229678288
 H        -7.5006417023        2.7550877802       -0.9890943271
 H        -7.4249273895        1.3166702671       -2.0186308249
 H        -5.1689993606        1.6921622666        3.0118823724
 H        -6.8427860817        2.1132357304        2.7790436168
 H        -4.3832172486        3.8780995693        2.1023838117
 H        -5.6148336182        3.9968782341        3.4159279723
 H        -6.3055034588        8.5584360191        3.7442973307
 H        -6.1243289246        7.0081061495        4.4210612826
 H        -8.6461405618        8.6245041009        4.1078597881
 H        -7.9229378965        8.2611254729        5.4633887167
 H       -12.0192165947        4.2788500554        5.6713857491
 H       -10.7270177563        3.9437345663        4.4913002253
 H       -13.5757843389        4.9720797430        3.9447344109
 H       -13.0094698074        3.3794160606        3.3308538912
 H       -13.2655737841        8.8354105218        0.8526818165
 H       -14.2569019792        7.8085739785        1.8264914969
 H       -14.3969944833        7.8782652248       -0.0850405307
 H       -11.7329731835        3.9467394332       -0.1335168992
 H       -12.6254957694        4.8418319442       -1.1872775843
 H       -13.3858910429        3.5864975751       -0.2900317749
 H       -14.9282815802        5.4013693942        0.2862818036
 H       -14.8978106200        5.7982935554        2.0475762076
 H       -14.7861084235        4.1311302359        1.5899779882
 H        -9.2035719581        5.4032928258        7.6252436612
 H        -9.0638041889        4.3756535627        6.2908696846
 H       -10.6643357960        4.6906267180        7.1159067294
 H       -11.1961585326        7.7161230034        7.0525256003
 H       -10.0144244428        8.4610540551        6.0204462606
 H        -9.4545538041        7.6876223878        7.4818121276
 H        -4.4547222909        6.3311783764        3.2698400844
 H        -4.6123935955        7.5271089782        1.9991646706
 H        -3.7908991075        5.9334891356        1.6821939610
 H        -7.0149931308        6.7452819622       -0.1909134650
 H        -5.6015423257        5.8597802741       -0.6162844774
 H        -5.4965890856        7.4628576099        0.0113179792
 H        -5.8730156193       -0.6853020795        2.3864342201
 H        -7.2147671546       -1.3969863032        1.4643161855
 H        -7.5421006437        0.0642081445        2.3933232851
 H        -5.4153564585       -0.0011882052       -1.3970896520
 H        -6.2695694980       -1.2985615259       -0.6407239661
 H        -4.6754429221       -0.9661249702        0.0419657907
 H        -7.5255906318        5.3620477002       -3.8636287474
 H        -7.3706540467        4.0249315997       -4.8653736394
 H        -7.1451165689        3.8774831006       -3.0548785147
 H        -9.7584596306        5.9119009104       -3.9992615346
 H       -11.1069522489        4.8327604611       -4.1926065305
 H        -9.9457473635        5.0514223147       -5.4937560068
 H       -11.4319949607       -1.0680952508       -8.0891239007
 H       -12.2148069214       -2.4713933301       -7.2851480325
 H       -11.0056109537       -1.5541356986       -6.4414915106
 H       -14.6845717310       -1.6135301042       -7.3327231961
 H       -14.0860534289       -0.5576784713       -8.5374668394
 H       -14.9357959170        0.2267038654       -7.1291188414
 Na       -9.5248554431        5.4952111926        0.4356040820
