117

 C       -14.0615920596       -2.0285799545       -4.5447687668
 C       -13.2479841900       -0.7963190001       -5.0157168207
 O       -12.8319691730       -0.0048083172       -4.1945892251
 C       -12.9204880190       -0.5842448271       -6.5421842267
 C       -12.1264360172        0.7575293142       -6.6491820261
 O       -12.6219586500        1.7984273217       -7.1107618428
 C       -10.6647649303        0.9287131030       -6.1690784930
 C       -10.7797847863        2.1410729006       -5.1541530462
 C        -9.4300249991        2.3527024441       -4.4718550167
 O        -8.6338720492        1.4541648386       -4.3078293887
 C        -9.0764848234        3.7213438286       -3.8163220917
 C        -9.3312819606        3.7024268921       -2.2404784257
 O        -9.5402779757        4.6992119338       -1.5718620430
 C        -9.3291647301        2.3086624667       -1.5314560742
 C        -7.9446075067        1.8012025958       -1.1478347044
 C        -8.0461341889        0.9277372322        0.1171137158
 O        -9.0587556491        0.5347400757        0.6145852968
 C        -6.5914787400        0.4732184940        0.6115604389
 C        -5.9060183679        1.8067465086        1.0988959880
 O        -5.3043798128        2.4605155177        0.2106902619
 C        -6.1230226293        2.2738216628        2.5493046191
 C        -5.7311131678        3.7581673930        2.6619794903
 C        -6.5790420799        4.6614902902        1.8273723367
 O        -7.7093775320        4.2585765100        1.5099525619
 C        -6.0225232752        6.1092746556        1.4745135600
 C        -7.0944154691        7.1401397952        2.1426833965
 O        -8.1546403098        7.3030242653        1.5394598671
 C        -6.8670466865        7.7713773828        3.4619620984
 C        -8.1108598196        7.6791453649        4.2890513717
 C        -8.5883843679        6.2879043705        4.7896025996
 O        -8.0011378516        5.2584217076        4.5439822492
 C        -9.9034984251        6.2248184875        5.7426977386
 C       -11.0827054433        6.0076263877        4.7993522057
 O       -11.5426514706        6.9723675392        4.1654559857
 C       -11.7620973015        4.6670633223        4.6644769584
 C       -12.8421186393        4.7621881169        3.4943808605
 C       -12.0834392449        4.9503766270        2.1185684639
 O       -10.8579829783        4.9060988224        2.1077392114
 C       -12.8721848240        5.3909576641        0.8504210333
 C       -12.4650687869        6.8619366568        0.4987418884
 O       -11.3442702053        7.1481016563        0.1611372332
 C       -13.5399420501        7.9258184647        0.6653015917
 C       -12.3915133366        4.5544258562       -0.3866624981
 C       -14.4077330305        5.2725007888        0.9678724001
 C        -9.7077456481        5.0400983772        6.6734879451
 C       -10.2121342269        7.5517910611        6.4807977337
 C        -4.5862911639        6.5014747534        1.9380224661
 C        -6.0482206222        6.2558502748       -0.0966711418
 C        -6.7168590081       -0.6248906029        1.7495344349
 C        -5.8535063002       -0.0838345520       -0.5911410596
 C        -7.5412002257        4.0499777854       -3.9628785280
 C        -9.8438419940        5.0168857289       -4.2539835581
 C       -11.9710346842       -1.6966004383       -7.1022393970
 C       -14.2052522979       -0.4921407260       -7.4217732206
 H       -14.9684146920       -1.6865865216       -4.0082600844
 H       -13.5564100868       -2.6586389945       -3.7730757557
 H       -14.3829432407       -2.6121989114       -5.3603320347
 H       -10.0290385898        1.2440564559       -6.9862959963
 H       -10.1353446517        0.1404908832       -5.6101762232
 H       -11.4196542528        1.7736361276       -4.3527574226
 H       -11.1461719457        2.9886281026       -5.6539642356
 H        -9.8883241410        1.4451264763       -2.0705484731
 H        -9.8639356291        2.5357662489       -0.6288408379
 H        -7.1814455174        2.5766722821       -0.7925189031
 H        -7.5495552638        1.2499175989       -2.0570784911
 H        -5.5172226125        1.6828032280        3.2288342276
 H        -7.1483667701        2.2995866707        2.8807724827
 H        -4.7071656453        3.9160494633        2.4225270246
 H        -5.9556806728        4.1828856303        3.6981979067
 H        -6.6812367742        8.8340109764        3.2393747924
 H        -5.9633264937        7.4687561694        4.0384237140
 H        -8.9468328489        8.3377986811        4.0033379602
 H        -7.9526804543        8.1684770323        5.2675962397
 H       -12.2579944735        4.4335632960        5.5919299126
 H       -11.0170761739        3.8572963335        4.4960097732
 H       -13.4632671086        5.6289380755        3.6637717108
 H       -13.5069993058        3.9267447254        3.5057021210
 H       -13.1972953598        8.8765629409        0.3653771207
 H       -13.8457777692        7.9666183185        1.6954337936
 H       -14.3875577963        7.6304109441       -0.0180895667
 H       -11.3373270911        4.2225806153       -0.4057298750
 H       -12.5139463363        5.1429242480       -1.3391712776
 H       -13.1595965731        3.7300645832       -0.4390744692
 H       -14.8300772588        5.4287971608       -0.0416334379
 H       -14.8994897828        5.8716364906        1.6899609372
 H       -14.6053308888        4.2024116243        1.1806540279
 H        -8.7631647901        4.9476200081        7.1883769551
 H        -9.8024218636        4.0881207728        6.0857630296
 H       -10.4685653958        5.1238510715        7.4149116233
 H       -10.8387340486        7.2777548235        7.3370659162
 H       -10.8122637552        8.1986522465        5.8879041253
 H        -9.2579489307        8.0582245030        6.7851527344
 H        -4.3950980167        6.3312133072        3.0357297753
 H        -4.5313166025        7.5489409950        1.7598497844
 H        -3.9210308144        5.8496258969        1.4264759193
 H        -7.0285657145        6.0646101817       -0.5669437113
 H        -5.3868005477        5.5429447529       -0.5909544859
 H        -5.7159325952        7.2167353896       -0.4646823664
 H        -5.7386612825       -0.7504380953        2.1446615611
 H        -7.0464962889       -1.5417474972        1.2994645093
 H        -7.3281210942       -0.4201671104        2.6077013374
 H        -5.5642474506        0.7883776253       -1.1310539926
 H        -6.4887346149       -0.7033978436       -1.2210055501
 H        -4.9726008583       -0.6205312659       -0.2960784614
 H        -7.1942624003        4.7005909126       -3.1227397071
 H        -7.3062128662        4.6307030248       -4.8602926692
 H        -7.0404079559        3.0808558380       -3.8925220908
 H        -9.6867637700        5.8585304253       -3.5700716226
 H       -10.9001360379        4.9008762056       -4.2020106977
 H        -9.5977709349        5.4224254995       -5.2351759126
 H       -11.7380626309       -1.4356220707       -8.1121079580
 H       -12.6086135527       -2.6267140047       -7.1074425137
 H       -11.0560675723       -1.8068260789       -6.5130293873
 H       -14.1522733692       -1.1623762017       -8.2214228545
 H       -14.3761493924        0.4490953616       -7.8385407374
 H       -15.0869361425       -0.6520651979       -6.8290289644
 Na       -9.3909769098        5.6773683667        0.4973297427
