117

 C       -14.1675871232       -2.0113697991       -4.5815154559
 C       -13.2861657935       -0.8381548780       -4.9988366431
 O       -12.8193053691       -0.1005210186       -4.1844433656
 C       -12.9575227265       -0.6346857706       -6.5161779545
 C       -12.1453590347        0.7828290268       -6.6395483574
 O       -12.7010601527        1.7420742937       -7.1263116454
 C       -10.7078439944        0.8178358416       -6.0994708728
 C       -10.6945587394        2.1301518821       -5.2159896890
 C        -9.4051869631        2.3504677247       -4.4207249954
 O        -8.6474648693        1.4270576415       -4.2220174113
 C        -9.0331615155        3.7795875639       -3.7097889751
 C        -9.2454910202        3.7076464581       -2.1767093032
 O        -9.3372463840        4.7906606964       -1.6004982279
 C        -9.4535875041        2.3610516873       -1.4431936937
 C        -8.0404230380        1.8396611855       -1.1031249315
 C        -8.0623174475        0.8685641971        0.0747791978
 O        -9.0629122786        0.5727306651        0.6853685391
 C        -6.5932983318        0.4636967380        0.5447612435
 C        -5.9981037783        1.7818579413        1.1793219558
 O        -5.4252479199        2.5340032941        0.4483564487
 C        -6.1614693256        2.2031267990        2.6264795907
 C        -5.7366157084        3.7214560081        2.7011043335
 C        -6.6737567759        4.7171765900        1.8782089152
 O        -7.7470668669        4.3874649516        1.4937225335
 C        -6.0684932741        6.1502599947        1.3966377190
 C        -7.1142197468        7.1500393874        1.9635606852
 O        -8.1270298866        7.4263272962        1.4178619696
 C        -6.8917968835        7.8074109062        3.4591734759
 C        -8.2018243631        7.7003178029        4.2912377093
 C        -8.5201646569        6.3035450312        4.8751791431
 O        -7.9405076561        5.2806365099        4.5263984751
 C        -9.8792194601        6.1705101384        5.7416068290
 C       -11.0982827007        6.0434131118        4.6941635429
 O       -11.4450453753        7.0062754280        4.0686435345
 C       -11.8367737125        4.6957862428        4.5696206979
 C       -12.8456374808        4.8365487711        3.3828239164
 C       -12.0336179789        4.9654348090        2.0856479800
 O       -10.8434579332        4.7733078124        2.0989009302
 C       -12.8700556021        5.3500946495        0.7906953358
 C       -12.3367380253        6.8807449444        0.5094573439
 O       -11.1738138144        7.1497460328        0.2318026464
 C       -13.3945647839        7.9368716649        0.6159430724
 C       -12.4078925677        4.4973347142       -0.4016335061
 C       -14.4141946348        5.3121972177        0.9675813757
 C        -9.7460260862        4.9931556789        6.6833225646
 C       -10.0834458021        7.5143988398        6.5210581076
 C        -4.6447860303        6.4861381456        1.8902627188
 C        -6.1380736137        6.1512489987       -0.1240817039
 C        -6.7917907707       -0.6678346424        1.6501416021
 C        -5.7229124692       -0.0741052550       -0.6001914403
 C        -7.4689710498        4.0073973815       -3.9610806406
 C        -9.7390800908        5.0379306227       -4.3043527399
 C       -12.0566467912       -1.7379776303       -7.0898055653
 C       -14.2441012855       -0.5615655820       -7.3713150600
 H       -14.8010362524       -1.6921931950       -3.7359228978
 H       -13.5053009501       -2.7981051311       -4.0814314864
 H       -14.7770658843       -2.4806821918       -5.3421259672
 H        -9.9982954870        1.0258903090       -6.8748842779
 H       -10.3504638821       -0.0867742162       -5.5386752663
 H       -11.4174738540        2.0321201754       -4.3997954071
 H       -10.9695141136        2.9103806953       -5.9325386070
 H       -10.0040714593        1.6613505690       -2.0356252764
 H       -10.0008261927        2.6018836608       -0.5119734784
 H        -7.2442762208        2.5396081992       -0.8968086245
 H        -7.7677545410        1.1828253005       -2.0059829187
 H        -5.5053969922        1.6348718642        3.3176050480
 H        -7.2425642921        2.2059226215        2.9828624216
 H        -4.6872628577        3.7690174508        2.3218311636
 H        -5.7790853332        4.1527322762        3.7057437042
 H        -6.7305919123        8.8665630370        3.2715776736
 H        -6.0545726491        7.5449630459        4.1093946319
 H        -9.1402903443        7.9782756169        3.7417001896
 H        -8.3098023948        8.4593846588        5.0422367184
 H       -12.4306633750        4.5046251362        5.4555417373
 H       -11.1504505240        3.8414075148        4.4915040128
 H       -13.5107561998        5.6779338631        3.5488862076
 H       -13.5133690108        3.9106447983        3.3569761875
 H       -13.0262073353        8.8985113428        0.2420687469
 H       -13.7172080047        8.0355060127        1.6826868389
 H       -14.2079771337        7.6134980880       -0.0303655522
 H       -11.3537938146        4.3681678157       -0.3845362144
 H       -12.6198389037        4.9493800602       -1.3917378812
 H       -12.9125541319        3.5953170337       -0.3361875880
 H       -14.8589041913        5.3411289016       -0.0241241753
 H       -14.8218150933        6.1777086068        1.5711363906
 H       -14.7448073841        4.3833558531        1.3856115153
 H        -8.8414931012        5.0367958502        7.2227086214
 H        -9.7404137927        4.0592708634        6.1531360786
 H       -10.5217305137        5.0457289658        7.4226277460
 H       -10.6800582887        7.3448397970        7.3904145757
 H       -10.6643832033        8.1600370430        5.9015505990
 H        -9.1427334705        7.9656786989        6.7454594073
 H        -4.5952531650        6.4087797497        2.9546770472
 H        -4.4195835787        7.4898167281        1.6213799208
 H        -4.0139130485        5.6530268042        1.4717218878
 H        -6.9608630778        5.7159334765       -0.5836967646
 H        -5.3037258148        5.5986819972       -0.5130775978
 H        -5.9998989213        7.1403085427       -0.5195051810
 H        -5.7765992113       -0.8462473451        2.0343665358
 H        -7.1608692641       -1.5587665257        1.1418959398
 H        -7.3771942132       -0.4650597497        2.5443820641
 H        -5.3981620746        0.7776790765       -1.2419000391
 H        -6.3157619419       -0.7228464604       -1.1372424344
 H        -4.8241572335       -0.6049265875       -0.1936956131
 H        -6.8854624314        4.5169643505       -3.1787581612
 H        -7.3373129190        4.6214408817       -4.8828409406
 H        -7.1005448462        2.9947541202       -4.1483962583
 H        -9.7324473787        5.9441789481       -3.6805330121
 H       -10.7999973154        4.8489788598       -4.3879526594
 H        -9.4067041220        5.3461697033       -5.2632917972
 H       -11.7937093377       -1.5273394275       -8.1250836587
 H       -12.6032452641       -2.6754315091       -7.0313225882
 H       -11.1704813382       -1.7493522562       -6.4948729941
 H       -14.1198161541       -1.0570839299       -8.3302558234
 H       -14.6170429687        0.4501272030       -7.5419218014
 H       -15.0601106226       -0.9972585967       -6.8359152538
 Na       -9.4328259178        5.7782686353        0.5631583946
