117

 C       -14.6201387772       -2.2986780900       -4.7382283387
 C       -13.6530912488       -1.0938017754       -4.7231858650
 O       -13.2661608510       -0.5611240672       -3.7381676215
 C       -13.1054877724       -0.7091205598       -6.2172334192
 C       -12.3011097864        0.5887056479       -6.2119616016
 O       -12.6781372546        1.5313812855       -6.9160273476
 C       -10.9709598975        0.7437379431       -5.3027990169
 C       -10.3760812661        2.1709028413       -5.3206564425
 C        -9.3157385745        2.2603416188       -4.3247766753
 O        -8.8408095480        1.2766836719       -3.8104175915
 C        -8.6745500524        3.6765077998       -3.9883665958
 C        -8.9236616402        3.9157093891       -2.3990688915
 O        -9.0923200911        5.0639547908       -2.0747045381
 C        -9.1617001031        2.6984950092       -1.4838302820
 C        -8.0311029936        1.7565033465       -1.1938569680
 C        -8.0725664448        0.9996622025        0.1731092639
 O        -9.0748953620        0.8035643113        0.7853392886
 C        -6.7374565836        0.5328790930        0.8070372127
 C        -6.1436653806        1.9024269143        1.3139314081
 O        -5.7032291860        2.7645818452        0.5005468576
 C        -6.3802669177        2.2299294223        2.8036127606
 C        -6.0892316922        3.7235050405        3.1058098820
 C        -6.7970908696        4.6211575484        2.1140061129
 O        -7.9363410688        4.3542175772        1.8103225829
 C        -6.0888372663        5.8726694449        1.5201571243
 C        -7.1320730231        6.9744605618        1.8489579656
 O        -8.0993186152        7.1321729981        1.1139998643
 C        -7.0660263431        7.8688674898        3.0926969789
 C        -8.2500009750        7.8947520387        4.0117240242
 C        -8.3597027276        6.5439842596        4.8704998986
 O        -7.3432351554        5.8960051878        4.9987764267
 C        -9.7632352569        6.0968152208        5.5297830329
 C       -10.8953707038        6.0608836045        4.5217086211
 O       -11.2173587541        7.0910976757        3.9213212078
 C       -11.8899285588        4.9017655951        4.3736759516
 C       -12.8722972581        5.1463966027        3.2365607067
 C       -12.1330749941        5.1431400953        1.8080149334
 O       -11.0427959976        4.5983810010        1.7279098511
 C       -12.8752269703        5.7105786691        0.5980632812
 C       -12.2082741554        7.1791638321        0.4475080646
 O       -11.0278477785        7.2033672550        0.3264507475
 C       -13.0219062331        8.4910917325        0.3133611044
 C       -12.5933389182        4.7470412291       -0.5815860110
 C       -14.3894017853        5.7120812520        0.7777652082
 C        -9.5247719036        4.8069089259        6.3103991749
 C       -10.0886715969        7.3674868140        6.4373136660
 C        -4.7056294485        6.1401146564        2.1334157281
 C        -5.9144147976        5.7120400531        0.0604356646
 C        -6.9060799301       -0.6028938105        1.8736405718
 C        -5.7255190500       -0.0140854248       -0.2900186160
 C        -7.1802080151        3.4920273939       -4.3936493768
 C        -9.2156316753        4.7750793299       -4.9025431138
 C       -12.1525466760       -1.9198382797       -6.6601268677
 C       -14.2947485571       -0.4298475783       -7.2098131191
 H       -14.0744707321       -3.1587351827       -4.2414538508
 H       -15.0130700211       -2.6218382423       -5.7367417737
 H       -15.4721718944       -2.0902532630       -4.1273843369
 H       -10.1807543049        0.0029120991       -5.5465452529
 H       -11.3172254954        0.5262485756       -4.3002701120
 H       -11.1651289127        2.9922909562       -5.1989047194
 H       -10.0287275436        2.4389541861       -6.3400704690
 H       -10.0142519408        2.1333984659       -1.9336862801
 H        -9.4745031285        3.1263965624       -0.5928973562
 H        -7.0993612784        2.2508264676       -1.0907415691
 H        -7.9202106694        1.0675121440       -1.9341411306
 H        -5.8573306484        1.5941132539        3.5777079854
 H        -7.4822524997        2.2552744254        2.9690419278
 H        -5.0691667493        4.0117286985        3.1650482216
 H        -6.4940798117        3.8957336815        4.1494232818
 H        -7.0231025947        8.8368822075        2.5999782810
 H        -6.1656403561        7.7297146058        3.6808667323
 H        -9.1247844658        7.9632908140        3.3943226841
 H        -8.2023664711        8.7640630207        4.7249268154
 H       -12.3199478162        4.7286320270        5.3588714127
 H       -11.3587097587        3.9647860769        4.1522525488
 H       -13.3424917381        6.1783670164        3.4093239352
 H       -13.6734149774        4.3957816819        3.1369678013
 H       -12.2837274621        9.2574960018        0.2028026954
 H       -13.7143453243        8.5804859666        1.1489324195
 H       -13.6918542067        8.3995879449       -0.6184038284
 H       -11.6684256793        4.7888147987       -0.9885357335
 H       -13.3668035173        4.8765934029       -1.3104277600
 H       -12.6703858510        3.7893284496       -0.2166573875
 H       -14.9452822788        6.0050078134       -0.1349564702
 H       -14.7208565342        6.4128575170        1.5033571305
 H       -14.8011138386        4.7090705556        1.0898140557
 H        -8.5158191471        4.7766874133        6.6170287898
 H        -9.7478170149        3.9805132810        5.6399094507
 H       -10.1748764489        4.6972561933        7.1094855997
 H       -10.8970743667        7.0555175076        7.0539023555
 H       -10.3853867030        8.1634895767        5.8434012121
 H        -9.2881445737        7.5946837415        7.1439820780
 H        -4.9104271249        6.2906368484        3.2146809623
 H        -4.2806978729        6.9837588369        1.6322342255
 H        -4.0274414066        5.3837419796        1.8814885734
 H        -6.8789859513        5.7923703136       -0.4131682298
 H        -5.6088854550        4.7417242632       -0.2466970365
 H        -5.3030304402        6.4161011972       -0.4147860566
 H        -6.0075612206       -0.6901397149        2.5042780727
 H        -6.9481392370       -1.5673433591        1.3178992679
 H        -7.8827498550       -0.4898950229        2.3989526046
 H        -5.3594778513        0.8656402225       -0.8414959250
 H        -6.2866581559       -0.6887413317       -0.9477993577
 H        -4.9226031435       -0.5577550488        0.2224255240
 H        -6.5578183381        4.3448771838       -4.0763362167
 H        -7.0864645479        3.1420991067       -5.4107897458
 H        -6.8336952121        2.6333490793       -3.8187097724
 H        -8.9575248572        5.7695449117       -4.5561975289
 H       -10.2852019667        4.7572318864       -4.8809469063
 H        -8.9837984935        4.7949590082       -5.9650946641
 H       -11.6408427382       -1.6448229010       -7.5405941582
 H       -12.8526934860       -2.7456965062       -6.8645411251
 H       -11.4768732682       -2.2120119835       -5.8590634512
 H       -15.0298264179        0.2516949103       -6.7718519049
 H       -14.8493419569       -1.3516997007       -7.4068774092
 H       -13.8744064923        0.1243143022       -8.0958630040
 Na       -9.5556657142        5.5121934086        0.2246684041
