117

 C       -14.5923977837       -2.3340860668       -4.7033638470
 C       -13.7030850768       -1.1187089528       -4.7936716340
 O       -13.3221386665       -0.5711514219       -3.7806567627
 C       -13.1361028363       -0.7447273716       -6.2091209434
 C       -12.3483750768        0.6082978403       -6.1217802750
 O       -12.6058757494        1.6200288130       -6.7276476215
 C       -11.1599322917        0.7078888018       -5.1999531671
 C       -10.5004263372        2.0455112414       -5.3192538814
 C        -9.3153828171        2.1943438099       -4.4290878391
 O        -8.8491369992        1.2017807923       -3.8851579824
 C        -8.6415747664        3.5806987028       -4.0607181963
 C        -8.9113712826        3.8523001402       -2.5296729961
 O        -9.1051971410        4.9958958193       -2.1093614748
 C        -9.1118536209        2.6660904887       -1.4985076886
 C        -7.8929922471        1.8829228440       -1.0908012446
 C        -8.0921593003        1.0048522684        0.1833757988
 O        -9.1513074148        0.8664915670        0.7948620025
 C        -6.6956641464        0.4720103642        0.7999104774
 C        -6.1885415833        1.8122501975        1.3965601017
 O        -5.6361810463        2.5862267767        0.6516258002
 C        -6.4049732007        2.1403175276        2.8463167730
 C        -6.0991562439        3.6074373909        3.1484875878
 C        -6.8082526470        4.5396471252        2.1135183610
 O        -7.9276930376        4.3442790239        1.7865592646
 C        -6.1127284120        5.9119994794        1.6370900930
 C        -7.1576619778        7.0123691603        1.8643467117
 O        -8.1713861248        7.0722453131        1.2165705345
 C        -7.0221659796        7.9857954199        3.1106342709
 C        -8.3292109293        7.8155715559        3.8932482976
 C        -8.3188245552        6.5273330544        4.7831755157
 O        -7.2677296029        5.9479014802        5.0741648849
 C        -9.6561269964        6.1863657786        5.4582752073
 C       -10.9070993778        6.1708824588        4.5000169050
 O       -11.1590315324        7.1229555026        3.8356546927
 C       -11.7913909303        4.8637972930        4.3201598983
 C       -12.8044291825        5.0990522702        3.2359488951
 C       -12.1811437697        5.1871826146        1.7727769828
 O       -11.0760411700        4.6988484104        1.6566444044
 C       -12.9700582893        5.7951734562        0.5565486128
 C       -12.2671006692        7.2289867980        0.2774930681
 O       -11.0341559884        7.3166795600        0.2611646522
 C       -13.1021194902        8.4509531202        0.3376680328
 C       -12.5957664952        4.8458014370       -0.5934955663
 C       -14.5066255233        5.9014975077        0.7335411381
 C        -9.4686606887        4.8644066080        6.1638827535
 C       -10.0102036473        7.4158083779        6.4661768357
 C        -4.6532007068        6.2775676682        2.2846112873
 C        -5.9194047348        5.8178350299        0.0419078706
 C        -7.0412111339       -0.5595614072        1.8391558863
 C        -5.6190073563       -0.0065132873       -0.2344890502
 C        -7.0309008907        3.5035250398       -4.3111299796
 C        -9.1259338499        4.7283004111       -4.9728271254
 C       -12.3245661769       -1.9654569898       -6.5905022439
 C       -14.2485751927       -0.5162227449       -7.2395923928
 H       -14.0503684248       -3.1603242320       -4.2632373621
 H       -15.1231649990       -2.6301262346       -5.6275584113
 H       -15.3455096085       -2.0743585559       -3.9950507835
 H       -10.4628820087       -0.0752976779       -5.4335052527
 H       -11.5859488694        0.4846215892       -4.1834855628
 H       -11.2418875411        2.8638351207       -5.1394872179
 H       -10.3602852516        2.2204019881       -6.3857351483
 H        -9.9335028720        1.9850526278       -1.7940548508
 H        -9.4233866321        3.2269822433       -0.6249830069
 H        -7.0531197557        2.4571796108       -0.8062049618
 H        -7.5640778403        1.1824927380       -1.8580250328
 H        -5.6204886369        1.5895913823        3.3400595784
 H        -7.3785035803        1.8784528172        3.2480323194
 H        -5.0263379857        3.7502038599        3.1102088630
 H        -6.3671785805        3.9452237210        4.1664284132
 H        -6.8704102200        8.9666313225        2.6932443073
 H        -6.2285649060        7.7316651044        3.8240972135
 H        -9.2212341187        7.7355298382        3.2190141143
 H        -8.4408161058        8.5656138023        4.6674397546
 H       -12.2955559344        4.6344616115        5.2504141394
 H       -11.1685695648        3.9356771378        4.1408040848
 H       -13.3416419640        5.9903640055        3.5113840904
 H       -13.5220019091        4.2710891830        3.1669209936
 H       -12.3545225501        9.2539871116        0.2177826894
 H       -13.6571243210        8.4350691836        1.2925548235
 H       -13.8471418568        8.4305000713       -0.4693522278
 H       -11.5123259735        4.7554412224       -0.6250421684
 H       -12.9774338414        5.2533499352       -1.5088147692
 H       -12.9556367854        3.8629967167       -0.5112252575
 H       -14.9847667329        6.4386045024       -0.0879224919
 H       -14.8795482120        6.4076007422        1.6635629180
 H       -14.9634765691        4.9205032377        0.7652573305
 H        -8.5794080296        4.8112992384        6.7313344989
 H        -9.4819298769        4.0686126380        5.4271615393
 H       -10.3719337864        4.6917112378        6.7441609364
 H       -10.8605318455        7.1127561378        7.0429211786
 H       -10.1934854427        8.3037888381        5.9085283026
 H        -9.2462927685        7.5673536628        7.2040000823
 H        -4.7984870909        6.3272330450        3.3357051434
 H        -4.2825934625        7.1417673658        1.8353516902
 H        -3.9159033017        5.5070984832        1.9454433438
 H        -6.7957581015        5.7172193952       -0.5290947224
 H        -5.3123828050        4.9564489725       -0.2517369732
 H        -5.4187429322        6.7072693025       -0.3558426582
 H        -6.1621723554       -0.8159173747        2.4802507277
 H        -7.2639384138       -1.5231078148        1.3158494116
 H        -7.9908990420       -0.2586353408        2.3343582513
 H        -5.2227153637        0.9836222526       -0.5983797712
 H        -6.0522646916       -0.5660913842       -0.9946797222
 H        -4.8308163420       -0.5875015695        0.3363745032
 H        -6.5997240418        4.2545346911       -3.6579903634
 H        -6.8075315010        3.6074208228       -5.3754320066
 H        -6.5952247321        2.5690725117       -4.0007169270
 H        -8.6652056581        5.7377429114       -4.8922406519
 H       -10.1838878560        4.8727364974       -4.7949688124
 H        -9.1058783608        4.5105359578       -6.0190196726
 H       -11.8925057574       -1.7533665122       -7.5472795404
 H       -13.0394983608       -2.7999098996       -6.6792239491
 H       -11.6202334933       -2.2216491016       -5.8305473402
 H       -15.2545185181       -0.3375359564       -6.7504697483
 H       -14.4405461018       -1.5061180929       -7.7191722401
 H       -14.0082159901        0.3556174202       -7.8851011935
 Na       -9.5175411106        5.4313516274        0.2211459874
