117

 C       -14.6693382126       -2.3775810641       -4.6600844623
 C       -13.7956525166       -1.1514056266       -4.7875973600
 O       -13.3962542475       -0.5144939069       -3.7797349277
 C       -13.2370623057       -0.7999575946       -6.2318829183
 C       -12.3882663761        0.6212158614       -6.0308239836
 O       -12.7218521633        1.5965270696       -6.6578402703
 C       -11.1955278295        0.6907005170       -5.0437102617
 C       -10.5133365999        2.0104307724       -5.2341484356
 C        -9.1646703213        2.1067881753       -4.4683593100
 O        -8.7474846824        1.0603665971       -3.9612335455
 C        -8.6110629039        3.4511663575       -4.0809104356
 C        -8.9282186140        3.7342118971       -2.5965438661
 O        -9.0662799351        4.9126072570       -2.2393235730
 C        -9.1490778634        2.6614846255       -1.5079686074
 C        -7.7801642904        2.0195741388       -1.1368975597
 C        -8.0114810796        1.0770518339        0.1222900466
 O        -9.1168947189        0.9595747997        0.6362531585
 C        -6.7230953391        0.4670615328        0.7754462723
 C        -6.0957687838        1.7285607109        1.5588818824
 O        -5.5247296324        2.5111738099        0.8659470820
 C        -6.4041571918        2.0880537836        2.9732254787
 C        -6.0508456000        3.5943186075        3.1580107469
 C        -6.7709412307        4.5915317113        2.1463124129
 O        -7.8824837165        4.2619631204        1.6971414115
 C        -6.1326085177        5.9650866409        1.6890393007
 C        -7.1286180812        7.0547651998        1.9235088104
 O        -8.1948142655        7.0568468016        1.3023571038
 C        -7.0019827575        8.0446420016        3.0600422998
 C        -8.3252998886        7.8541665961        3.8490928107
 C        -8.3144775291        6.6801805217        4.7902027022
 O        -7.3263029263        6.0195977942        4.9980817740
 C        -9.6908288499        6.2106678458        5.4417572381
 C       -10.8453995238        6.2329859835        4.3527295883
 O       -11.1469443973        7.2259873001        3.7057204290
 C       -11.6505640315        4.9588996726        4.1975345570
 C       -12.8506030614        5.0643552550        3.2427067170
 C       -12.2777458950        5.1494712411        1.8440505084
 O       -11.1247756194        4.8119053097        1.6409052317
 C       -12.9468076572        5.8586006997        0.5758554757
 C       -12.2819662019        7.2634754181        0.3647523834
 O       -11.0868146783        7.3073593814        0.0577385328
 C       -13.2481652530        8.4793061377        0.3664549028
 C       -12.6873384360        5.0080230721       -0.7589816525
 C       -14.4273622057        6.0615670715        0.7291582890
 C        -9.4621062681        4.8502313357        6.2159576392
 C        -9.9064816531        7.2750706097        6.5013762344
 C        -4.7747069808        6.2518951909        2.3855696213
 C        -5.8693313917        5.8702625100        0.1242820651
 C        -7.1598565908       -0.6296957321        1.8737507643
 C        -5.6716148054       -0.0526011490       -0.2054639226
 C        -7.0383186133        3.4596274580       -4.1150800206
 C        -9.0819127852        4.6855000399       -4.9090606926
 C       -12.3117184594       -1.9584719909       -6.6163501187
 C       -14.3970195215       -0.6167256728       -7.3122069881
 H       -14.0895656126       -3.2113207655       -4.4145506564
 H       -15.1688779851       -2.5185352390       -5.5582710959
 H       -15.4538436568       -2.2917200202       -3.8639417740
 H       -10.5566642043       -0.1497128672       -5.2929066649
 H       -11.6098071827        0.4951790813       -4.0327032295
 H       -11.2122690300        2.7690561117       -5.0351288325
 H       -10.4869725638        2.1578425324       -6.3148537782
 H        -9.7492082010        1.8837378987       -1.9202436366
 H        -9.7299007792        3.1702866831       -0.6374566433
 H        -6.8770992804        2.6265220465       -0.8672111391
 H        -7.4762574980        1.2627759364       -1.9667557409
 H        -5.8171826645        1.5046388351        3.6270374621
 H        -7.4403582826        1.8829138807        3.1438338528
 H        -4.9343362084        3.6533406683        3.0610001174
 H        -6.2411260880        4.0634666318        4.0876777962
 H        -6.9014592638        9.0501860271        2.6046784556
 H        -6.1767245011        7.8302791967        3.7457062837
 H        -9.1812759176        7.5911453688        3.1544173305
 H        -8.5060580460        8.6961521211        4.5214484256
 H       -12.0140182528        4.6835842998        5.2156677761
 H       -11.0136442799        4.1114858142        3.9329725090
 H       -13.4859398172        5.8722660263        3.4399118567
 H       -13.4326477519        4.1544350454        3.2895659042
 H       -12.5659734523        9.3221598162        0.1035585139
 H       -13.8013920377        8.5719214696        1.3168684505
 H       -13.9390210175        8.3253817453       -0.4003054847
 H       -11.6282672487        4.5635684582       -0.7719701261
 H       -12.8485885954        5.6667498417       -1.6050245075
 H       -13.3963095262        4.1063905982       -0.9355640394
 H       -14.8364768167        6.6675727218       -0.0576012941
 H       -14.8219647493        6.4839498278        1.6929876708
 H       -14.9494424948        5.1406030879        0.6672368725
 H        -8.7833905388        5.0465938889        7.0881128227
 H        -8.9743836430        4.1111006944        5.6070207139
 H       -10.4506844339        4.4075683454        6.5314561518
 H       -10.7104539848        7.1256777129        7.2262577490
 H        -9.9219188168        8.2603298028        5.9536160136
 H        -9.0239246847        7.2897317253        7.0974671780
 H        -4.9314173025        6.0334035970        3.4005015346
 H        -4.4635056521        7.2783677827        2.1404435299
 H        -4.0147222473        5.6141338252        1.9010679399
 H        -6.7287723871        5.5149221144       -0.4807920810
 H        -5.0432728209        5.2119745837       -0.1596055231
 H        -5.6304694249        6.8615644544       -0.3263356573
 H        -6.2393097970       -0.9664627089        2.3644247477
 H        -7.5464232659       -1.5515201550        1.4391893801
 H        -7.9588184087       -0.2351581927        2.5035023607
 H        -5.2086359926        0.7953262118       -0.6641918063
 H        -6.1494065339       -0.7572302828       -0.9200330866
 H        -4.9873549962       -0.5776046697        0.4422464487
 H        -6.6756289108        4.0825245258       -3.3333226412
 H        -6.7319966871        3.7562302909       -5.1190272230
 H        -6.5994936728        2.4752523678       -3.8977445898
 H        -8.4401389769        5.5502391891       -4.9592065601
 H       -10.0985467112        5.0562644088       -4.6318600877
 H        -9.2164513508        4.4110012522       -5.9516726151
 H       -11.9312932358       -1.7569599858       -7.6438526390
 H       -12.7990120356       -2.9025003910       -6.5528129535
 H       -11.5306550993       -1.9644344665       -5.8624352928
 H       -15.4288607368       -0.8045910005       -6.9263138291
 H       -14.2947720701       -1.4962672368       -7.9630898620
 H       -14.3178858262        0.3581761699       -7.7924066324
 Na       -9.3710773896        5.4004243374        0.1785442627
