117

 C       -14.8029342336       -2.5478826291       -4.6334429779
 C       -14.0654474765       -1.2518273531       -4.7198169116
 O       -13.9642635328       -0.4973596341       -3.7237211397
 C       -13.4019985316       -0.8318076532       -6.0741810671
 C       -12.5844779571        0.5423190344       -5.9035632215
 O       -13.0118637847        1.5344947668       -6.4396645342
 C       -11.3233005130        0.5933259074       -5.0735275095
 C       -10.5375442287        1.8951168979       -5.1342039197
 C        -9.1168569628        1.8499911756       -4.4516183402
 O        -8.4253162330        0.8612225305       -4.4584334251
 C        -8.4351047440        3.2673576637       -4.0020181757
 C        -8.9232303429        3.6186341897       -2.5715577551
 O        -9.0720020673        4.8069636170       -2.2359643857
 C        -9.0152831387        2.5445133519       -1.4739933915
 C        -7.6945341102        2.0407536464       -0.9708858656
 C        -7.9720332258        1.0446591298        0.1941641272
 O        -9.1450891426        0.9047006235        0.5820614271
 C        -6.7493581942        0.5176021257        0.9905746652
 C        -5.9236073732        1.6744574713        1.6825493717
 O        -4.9120282207        2.0640768814        1.2069212967
 C        -6.5709967902        2.1332429165        2.9578574716
 C        -6.2826065714        3.5831467335        3.2576491179
 C        -6.7323452179        4.5253296985        2.0947996101
 O        -7.5904640889        4.1525770678        1.3129529960
 C        -6.0998682719        5.9256052904        1.8577476066
 C        -7.2244774622        7.0685709703        2.0142399911
 O        -8.1943907827        7.1051487001        1.2611685779
 C        -7.0801766730        8.3154806648        3.0231925736
 C        -8.1738665161        8.2991128984        4.1608880228
 C        -8.3410319927        6.8596726982        4.7148455506
 O        -7.5343910674        5.9677889049        4.5070236104
 C        -9.6785993145        6.3778541593        5.4197396251
 C       -10.7864224286        6.3324420706        4.3351372274
 O       -11.0763762541        7.3074539747        3.7092812212
 C       -11.6954259282        5.0718420576        4.1320218659
 C       -12.6239012418        5.2619289893        2.9858986304
 C       -12.0741201980        5.3432654030        1.5167824016
 O       -11.0147372975        4.8806593264        1.1637278169
 C       -13.0316392077        6.0137621673        0.4886955732
 C       -12.2612792782        7.3434764164        0.2330442603
 O       -11.1057939302        7.3193457534       -0.2390719757
 C       -12.8500836258        8.7668671581        0.4951343264
 C       -13.0663625114        5.1191075987       -0.8531903788
 C       -14.4660196562        6.1618885584        1.0523187022
 C        -9.3374955294        4.9372324193        5.9926095198
 C       -10.2376234142        7.3178149682        6.5115956960
 C        -4.8343198620        6.2895295315        2.7632663097
 C        -5.7054141548        5.9223659594        0.3712968535
 C        -7.4260989707       -0.4229503143        2.0324690347
 C        -5.7563695021       -0.1939888521       -0.0656743251
 C        -6.9229035159        3.1434584867       -4.0226228052
 C        -8.8579420200        4.3802729955       -5.0311650333
 C       -12.3145890540       -1.9254851230       -6.5488442645
 C       -14.4830955124       -0.7961684056       -7.2048849943
 H       -14.1118167395       -3.3709001945       -4.8526806043
 H       -15.6671515809       -2.5313291009       -5.3220600908
 H       -15.1624097066       -2.7711668882       -3.5698294416
 H       -10.6927237110       -0.2377247026       -5.3203877800
 H       -11.6182371865        0.3946486647       -4.0091826453
 H       -11.1977642526        2.7058244553       -4.6797397136
 H       -10.3378398949        2.3529272911       -6.1310153886
 H        -9.7184984714        1.7952511237       -1.7636207088
 H        -9.5768909956        3.0210094900       -0.6652618618
 H        -7.2059717853        2.8730953312       -0.6081921040
 H        -7.0313742969        1.5723333377       -1.6435805943
 H        -6.1520071073        1.5002616787        3.7799656435
 H        -7.6740255382        1.9256125187        2.9630196779
 H        -5.1816181790        3.7142555556        3.3420794064
 H        -6.6354450786        3.9019928742        4.2431773013
 H        -7.1672588720        9.2892382645        2.5773270847
 H        -6.1056803497        8.2380331700        3.4999156404
 H        -9.1671998897        8.5904194133        3.7731040097
 H        -7.7206164773        8.8915193266        4.9317772200
 H       -12.3923347085        4.9325580091        4.9320172036
 H       -11.1336862381        4.0991092559        4.0877161164
 H       -13.2297583906        6.1603116421        3.1613550712
 H       -13.3495925641        4.3952528023        3.1158036261
 H       -11.9634362432        9.4786518349        0.4147189169
 H       -13.3285007926        8.8251329569        1.4910968937
 H       -13.5597509570        8.9107391377       -0.2922041223
 H       -12.0784016573        5.0131636953       -1.2398969769
 H       -13.6362705686        5.5564483462       -1.5522730394
 H       -13.4836522686        4.1692020540       -0.6634172436
 H       -15.1717386093        6.3095490020        0.2512332063
 H       -14.6931575572        6.8952668870        1.8801449827
 H       -14.7981678232        5.2570833475        1.5011285621
 H        -8.4094635758        4.9781412331        6.5020220906
 H        -9.2125817426        4.2097336570        5.2467103907
 H       -10.1160552362        4.6217089122        6.6910960351
 H       -11.0081094040        6.8284963370        7.0852195855
 H       -10.5599855214        8.2577313843        6.0550981038
 H        -9.4588494016        7.5677330473        7.1844151543
 H        -5.0659587372        6.4206694210        3.7954164573
 H        -4.3923760896        7.1526656693        2.2883410571
 H        -4.1650408911        5.3691070073        2.6618525931
 H        -6.4272876863        5.7733281588       -0.3582761561
 H        -4.9578387255        5.1551585782        0.2438956038
 H        -5.1962955941        6.8305094539        0.0626861238
 H        -6.6434474064       -1.0161062214        2.5242915279
 H        -8.1130150247       -1.0920321197        1.5214387842
 H        -8.0413160626        0.1286536120        2.7290046092
 H        -5.2963082132        0.5988607878       -0.6721562938
 H        -6.3286001503       -0.8927927653       -0.6421372664
 H        -4.9877959208       -0.7198442442        0.5431715031
 H        -6.4380839433        4.0253740469       -3.5551027388
 H        -6.6828926261        3.2326518971       -5.0972369954
 H        -6.5112432725        2.2921527943       -3.4855984842
 H        -8.6043365057        5.3982199706       -4.6916111695
 H        -9.9087538344        4.4703544106       -5.2704208721
 H        -8.3078708925        4.2838063984       -5.9403981118
 H       -11.7144448962       -1.4089429667       -7.3024551310
 H       -12.7700203114       -2.8252363980       -6.9780810290
 H       -11.7300432013       -2.2309909456       -5.7016047443
 H       -15.0021042716       -1.7669522498       -7.0964567294
 H       -14.0917925221       -0.6046835584       -8.2157983604
 H       -15.1010176012        0.0249673142       -6.9261932538
 Na       -9.2723170938        5.5454544174       -0.0067805954
