117

 C       -15.0780201449       -2.5603610484       -4.3805211828
 C       -14.2598358680       -1.2510663835       -4.4831056975
 O       -14.0439591299       -0.6403676622       -3.4881326840
 C       -13.6074238931       -0.8207349602       -5.8232865892
 C       -12.7030767816        0.4464929546       -5.5225806600
 O       -13.0455225067        1.5416812220       -5.8940752168
 C       -11.4302845177        0.3354139765       -4.7605166198
 C       -10.8361537061        1.8000641629       -4.5629075073
 C        -9.3174971820        1.6929541211       -4.5107706395
 O        -8.7815857611        0.7060482363       -4.9257746385
 C        -8.4671410456        2.8982671624       -4.0815906813
 C        -8.6737210909        3.2834508760       -2.5060525239
 O        -8.5668421514        4.4141325669       -2.1261081849
 C        -8.8946991929        2.0598689154       -1.5424955251
 C        -7.6719346960        1.6323310761       -0.7950885320
 C        -8.0326555074        0.7291272964        0.4844294621
 O        -9.1817502031        0.4345405799        0.6348318846
 C        -6.8335635027        0.0935752666        1.2637309881
 C        -6.0116261985        1.2535435030        1.9272718785
 O        -4.7691710533        1.2528259584        1.8077673494
 C        -6.8377427822        2.4031894085        2.7723691773
 C        -6.0464064631        3.6847249389        2.7018806687
 C        -6.6071233757        4.7616091317        1.7201525996
 O        -7.3476086968        4.3860448606        0.8446575345
 C        -6.0717383501        6.2903430245        1.6817461134
 C        -7.2801207355        7.3343926342        1.9687694834
 O        -8.2161431412        7.3241531370        1.1534700200
 C        -7.1737136168        8.3476626602        3.0968220444
 C        -8.5096771308        8.3867586485        3.9547433546
 C        -8.7617068239        7.0222659119        4.5916420131
 O        -7.9831504027        6.1178981859        4.4375458684
 C       -10.1414535131        6.8263504103        5.3732274824
 C       -11.1659704640        6.5675635129        4.2408350695
 O       -11.6214461141        7.4880845920        3.5655381850
 C       -11.5057482397        5.0920448715        3.9346648433
 C       -12.5868782863        5.1742148174        2.7881027391
 C       -11.8583366097        5.3808216398        1.4867319959
 O       -10.7823508444        4.9249418660        1.2432609462
 C       -12.5735400524        6.4094528883        0.4317424892
 C       -11.5154153849        7.5280208017       -0.0040937648
 O       -10.5961778137        7.1988409160       -0.7151476607
 C       -11.7243398321        9.0063857674        0.4352894136
 C       -12.6416350829        5.3912483435       -0.7905644969
 C       -14.0072828181        6.8730268349        0.7420109371
 C        -9.9968257455        5.5895701202        6.2787371319
 C       -10.3577557371        8.0063577921        6.3363707291
 C        -4.9139523752        6.5776345509        2.6407674684
 C        -5.6188546321        6.5757829984        0.2256088493
 C        -7.5019275662       -0.8333077687        2.3704561274
 C        -6.0079061002       -0.6591125976        0.2267793198
 C        -6.9482080263        2.4953593186       -4.2317472871
 C        -8.8269113220        4.1214472382       -5.0410866656
 C       -12.6193938167       -2.0343561032       -6.2703481751
 C       -14.5058150691       -0.5518320014       -7.0257023882
 H       -15.0045540358       -3.1961065866       -5.2553670244
 H       -16.0994833286       -2.3081897927       -4.3229306843
 H       -14.8075279022       -3.0726450191       -3.4621393717
 H       -10.7609556618       -0.3313907236       -5.2567857363
 H       -11.6590427005       -0.0968455517       -3.7777616553
 H       -11.2131768415        2.2786656906       -3.6622994504
 H       -11.2146420704        2.2918626054       -5.4413034348
 H        -9.3773889400        1.2733466831       -2.0617813391
 H        -9.6634113839        2.3260401776       -0.7193097302
 H        -6.9994338625        2.4626639647       -0.4385795759
 H        -6.9634794520        1.0120165828       -1.4323713471
 H        -7.0671865933        1.9223252950        3.7341363811
 H        -7.8586439700        2.5516090894        2.3414687888
 H        -4.9990533377        3.4529068689        2.4401490929
 H        -6.0860469347        4.1772758347        3.6361958976
 H        -6.9968425795        9.3227959546        2.6215483574
 H        -6.2591374638        8.3047884051        3.6831087170
 H        -9.3565389996        8.6195410128        3.2468607720
 H        -8.2465826974        8.9972854385        4.7932559022
 H       -11.9276304797        4.6753462805        4.8196989201
 H       -10.6174146996        4.5405206121        3.5922047631
 H       -13.2755487909        5.9821968722        2.9325243549
 H       -13.2429004300        4.2746538570        2.7680066995
 H       -10.7321002145        9.4041771639        0.3774012738
 H       -12.1552923868        9.1088497752        1.4253105268
 H       -12.2546257187        9.4620921321       -0.3654213313
 H       -11.5727795960        5.2011605779       -1.0430012713
 H       -13.2234813102        5.7562441552       -1.7437120860
 H       -13.1109798081        4.4235334767       -0.4053815828
 H       -14.4257881508        7.3373664593       -0.1402552771
 H       -14.0441665629        7.7231653629        1.4593084593
 H       -14.6145229371        6.0646483166        1.0782543462
 H        -9.1919533599        5.7434631756        7.0475121724
 H        -9.7515541212        4.6872730645        5.7431167699
 H       -10.8887000752        5.3416307219        6.8929258746
 H       -11.3598937899        8.0197421485        6.7747790402
 H       -10.2707119465        8.9142860621        5.6910674423
 H        -9.6123565224        8.1236180973        7.1021232281
 H        -5.0622065846        6.5055584459        3.7047411968
 H        -4.4904394048        7.5752118207        2.3923252080
 H        -4.0569431247        6.0063344709        2.3035431978
 H        -6.4514009083        6.6602729121       -0.5175070545
 H        -5.0434732183        5.7321639427       -0.1584481211
 H        -4.9498080878        7.4562332536        0.1415605087
 H        -6.7124795474       -1.3985408599        2.9080530549
 H        -8.2464620797       -1.5298605329        1.9388324076
 H        -7.8700328424       -0.1264604239        3.1397755973
 H        -5.5182737434       -0.0348893279       -0.4546561930
 H        -6.7270146342       -1.3871221111       -0.2907599096
 H        -5.3003901573       -1.2085131241        0.7726713973
 H        -6.3360948355        3.2812378413       -3.8644484451
 H        -6.7370871288        2.3356659504       -5.2836094277
 H        -6.7188199379        1.5048619217       -3.8512240139
 H        -8.6250367793        5.0262114924       -4.4736733909
 H        -9.9157456127        4.1244392512       -5.3258625952
 H        -8.2354747976        4.1371459447       -5.9666077055
 H       -11.6780062827       -1.7824828113       -6.8164969000
 H       -13.1553604728       -2.7269503989       -6.8677052755
 H       -12.2620153552       -2.5637182730       -5.3901931172
 H       -13.8912927692       -0.2578236670       -7.9085484707
 H       -15.2389243544        0.2376856906       -6.7923213335
 H       -14.9351481017       -1.5257155845       -7.2850389628
 Na       -9.0523652954        5.5987127504       -0.3440415266
