117

 C       -15.4575940446       -2.3816591550       -4.5044537014
 C       -14.3421072434       -1.3352172210       -4.3111011191
 O       -14.0056089791       -0.9078890759       -3.2447662321
 C       -13.6846730633       -0.8355534202       -5.7039749802
 C       -12.8408386115        0.4621179307       -5.5364875483
 O       -13.1234086729        1.4772712316       -6.1192157052
 C       -11.6150451034        0.4263747539       -4.4999997073
 C       -10.7862546709        1.7761388430       -4.5160915476
 C        -9.1948875873        1.5837420835       -4.5437051604
 O        -8.7148811777        0.5634277566       -4.9064313743
 C        -8.3211444888        2.8524197579       -4.0201908239
 C        -8.6298095483        3.2375772618       -2.5354455144
 O        -8.7885999437        4.4380648750       -2.3261069023
 C        -8.9288506775        2.1725328237       -1.4236092304
 C        -7.6806365749        1.5612498249       -0.8107738859
 C        -7.9905971350        0.6916495183        0.4754031959
 O        -9.0945739030        0.2645213074        0.6887219335
 C        -6.8483012349        0.1564481851        1.4051641869
 C        -5.9769380678        1.3540131985        1.9302996575
 O        -4.7809517676        1.4972079358        1.6841287280
 C        -6.7113931656        2.4118089453        2.7928185541
 C        -5.9625112754        3.7607010498        2.7076682468
 C        -6.5265529699        4.6306690929        1.6021923463
 O        -7.3360213092        4.2007766848        0.8058220140
 C        -6.0534597836        6.1498753890        1.5453959934
 C        -7.2329830505        7.0185130512        1.9571197067
 O        -8.3386372785        6.9340832005        1.3776173680
 C        -7.1972619741        8.0772586519        3.0826375436
 C        -8.6204911306        8.2830270397        3.6593269073
 C        -8.9318296752        7.0200262147        4.5266833193
 O        -8.2005699342        6.0461075781        4.5013843814
 C       -10.2378049463        6.9784058523        5.3368505906
 C       -11.2832769710        6.7144291181        4.2337171018
 O       -11.6784916875        7.6403135773        3.5489233553
 C       -11.8271070426        5.2454945641        3.9492558208
 C       -12.5006800312        5.0885695504        2.5844829211
 C       -11.5652204549        5.6005573962        1.4434836586
 O       -10.3922333815        5.4385938087        1.4765868248
 C       -12.3211534254        6.3686565550        0.2739422497
 C       -11.2864135683        7.5143761982       -0.1158770107
 O       -10.3576844527        7.3989737458       -0.8692093909
 C       -11.5689402717        8.9318898466        0.5597779195
 C       -12.5238185395        5.5277906378       -1.0242406476
 C       -13.6917697505        7.0365254141        0.6197123984
 C       -10.1404093381        5.8656539889        6.3748433007
 C       -10.7370216651        8.3017577545        5.9701216842
 C        -4.7836776873        6.4096383993        2.3713432415
 C        -5.6020320654        6.4923601947        0.0392565963
 C        -7.5117382113       -0.4279178062        2.7145901294
 C        -5.9518685942       -0.8951440288        0.7327794383
 C        -6.8409923090        2.4731294179       -4.2161580897
 C        -8.6574848035        4.0428133631       -5.0404413569
 C       -12.7491841609       -1.9744221804       -6.2770175633
 C       -14.9310991599       -0.6768716316       -6.6779481000
 H       -15.5853096696       -2.6940878837       -5.5229408860
 H       -16.3338053297       -1.8242937940       -4.2117083309
 H       -15.4152852383       -3.2314341172       -3.7402490387
 H       -10.8951618977       -0.3684035385       -4.7904337686
 H       -11.9157633875        0.2392967273       -3.4392276180
 H       -11.0130841503        2.3938887243       -3.6040879585
 H       -11.0523965553        2.2914099135       -5.4145918193
 H        -9.5139897356        1.3999151551       -1.9749440595
 H        -9.5559939207        2.7391134727       -0.7183313182
 H        -6.8626437245        2.2512892653       -0.5525278931
 H        -7.2367666370        0.9563499178       -1.5802517270
 H        -6.7099683675        2.1128385226        3.8266042694
 H        -7.7177804425        2.3524189133        2.4520254627
 H        -4.8914888188        3.6033976713        2.5910817201
 H        -6.2436044406        4.2421573631        3.6892190652
 H        -6.7870170725        9.0630406667        2.8099422689
 H        -6.5314333480        7.7950910282        3.9145180013
 H        -9.3068994889        8.4137867030        2.7999736756
 H        -8.4432299881        9.1118093589        4.3402420163
 H       -12.5254050258        4.9723782586        4.7296156810
 H       -10.9094660580        4.5611612359        3.9707978885
 H       -13.4482866266        5.5727379828        2.5964920838
 H       -12.7242600238        4.0454526248        2.4251578715
 H       -10.9491440602        8.8875798137        1.5140429447
 H       -12.6368811449        8.9727679564        0.8310246779
 H       -11.2541057123        9.7195882007       -0.0770384003
 H       -11.6095042201        5.3685766228       -1.4462641782
 H       -13.2650349090        6.0329069048       -1.6182852737
 H       -12.9528718269        4.5816184580       -0.8063336219
 H       -13.9088275587        7.8074999913       -0.1145396094
 H       -13.8801504667        7.4024149962        1.6932355005
 H       -14.3778217948        6.2427847530        0.4289831420
 H        -9.5184394729        6.1485440906        7.2037469634
 H        -9.7045435503        5.0043303945        5.9968324762
 H       -11.1135062588        5.5516101111        6.7548988635
 H       -11.6757103939        8.0525200766        6.4355460360
 H       -10.9169381882        9.1299726824        5.2474708813
 H       -10.1432224706        8.6038512895        6.7831753899
 H        -4.9707413263        6.3376669654        3.4327401341
 H        -4.4198632981        7.4265124093        2.2368617530
 H        -3.8708565692        5.7681485527        2.1690189638
 H        -6.2320037100        6.1515657860       -0.7404419071
 H        -4.6126579912        6.1202505931       -0.2066097451
 H        -5.5625050633        7.5806777760       -0.0135419257
 H        -6.9465545228       -0.4344557793        3.6381028569
 H        -7.9039054486       -1.4099246530        2.5301072766
 H        -8.4071024151        0.1638301120        2.7394154420
 H        -5.4895871181       -0.5513786707       -0.1828968637
 H        -6.6055129262       -1.8106815570        0.4694685159
 H        -5.1917163556       -1.1716911987        1.4670855011
 H        -6.3174493179        3.4256284710       -4.0821324203
 H        -6.7057107436        2.0306498029       -5.2294652696
 H        -6.3291649806        1.7537638181       -3.5586734585
 H        -7.8502273067        4.7850061091       -4.9807326154
 H        -9.5569782728        4.5402023185       -4.6592423119
 H        -8.8296375581        3.7141564991       -6.0394788068
 H       -12.5226282308       -1.8641046919       -7.3476904396
 H       -13.1262377225       -3.0052758807       -6.1321281499
 H       -11.7842662165       -1.9730041114       -5.7846010386
 H       -14.7476924248        0.1140172259       -7.4203709311
 H       -15.8825691506       -0.3991908515       -6.2277906249
 H       -15.0538443550       -1.6553661156       -7.1101893660
 Na       -8.9268285261        5.4333031961       -0.3621271124
