117

 C       -15.5670960017       -2.3642188245       -4.2643410442
 C       -14.3593693290       -1.3680319188       -4.2403116275
 O       -13.7627706558       -1.1015713468       -3.1729027387
 C       -13.7672636312       -0.7654263661       -5.6438459484
 C       -12.9066787078        0.5353764441       -5.4096527668
 O       -13.0772719035        1.4726689346       -6.1711664932
 C       -11.6608657368        0.4283535589       -4.4827862468
 C       -10.8360482820        1.7163762610       -4.5405275808
 C        -9.3288900942        1.4482939234       -4.4817371150
 O        -8.8212167118        0.3664080211       -4.7537046078
 C        -8.3633453105        2.6401422747       -4.0429785105
 C        -8.6353162229        3.0901976886       -2.5552063232
 O        -8.8361265995        4.2712064343       -2.3248707773
 C        -8.7346796142        2.0290951437       -1.3813607017
 C        -7.4345885794        1.4384365185       -0.8652396096
 C        -7.9323637048        0.6941069879        0.3811552437
 O        -9.1247566988        0.4196402451        0.5034933111
 C        -6.9063890438        0.2249778234        1.4319479987
 C        -6.0417090581        1.4886827228        1.8052307263
 O        -4.9614317436        1.6456844006        1.3910042595
 C        -6.6735349326        2.5250245597        2.8819917846
 C        -6.0047108434        3.9542144858        2.9579141847
 C        -6.4206175590        4.7060705259        1.6705333241
 O        -7.2192338911        4.2237617190        0.8467657360
 C        -5.9476240976        6.1842489755        1.5103063666
 C        -7.1637205497        7.0645052378        1.9210697944
 O        -8.1430720535        6.9271454561        1.2466301757
 C        -7.0739564546        7.9758996968        3.0914819819
 C        -8.4185764781        8.2548224265        3.8578671387
 C        -8.9327677056        7.0308599088        4.5487494434
 O        -8.3727954133        5.9493880630        4.5974134129
 C       -10.3430611896        7.0941187765        5.3468482073
 C       -11.4784552696        6.6775432314        4.1036748704
 O       -11.8226834968        7.5195889060        3.3098354744
 C       -11.8970394759        5.2086648894        3.9310068065
 C       -12.6251825343        5.0910179671        2.5681103182
 C       -11.7240998107        5.5898631752        1.4197652256
 O       -10.5143838184        5.2715555217        1.3867685946
 C       -12.2565361963        6.4986903781        0.1715474238
 C       -11.0931470007        7.6611658344       -0.1284332438
 O       -10.1702814511        7.4076548619       -0.9003418065
 C       -11.2631515358        9.0261815939        0.5429850374
 C       -12.1932307453        5.5280390321       -1.0151804029
 C       -13.7239749586        7.0063484372        0.5225365434
 C       -10.4091151187        6.1075283905        6.4931217795
 C       -10.6219690913        8.5418519787        5.7705019936
 C        -4.6715481758        6.4551511350        2.2825300530
 C        -5.7363407419        6.4162337316       -0.0264212264
 C        -7.6241306279       -0.2936810590        2.6736658154
 C        -5.9864402056       -0.9342348604        0.8731677098
 C        -6.8879661415        2.2630381773       -4.0138426235
 C        -8.7387168942        3.8299794997       -5.0103803702
 C       -12.9046959862       -1.8908228952       -6.1349005199
 C       -14.8482801908       -0.3803748297       -6.6996608012
 H       -15.3739879357       -3.1158768551       -4.9969390856
 H       -16.5523993753       -1.9155432648       -4.3453139194
 H       -15.5675430515       -2.8067572595       -3.3086116296
 H       -10.9747654879       -0.3767849841       -4.7362136184
 H       -11.9926350326        0.2817342700       -3.4717587686
 H       -11.0409307306        2.3841300006       -3.7581811968
 H       -10.9903552488        2.2551212128       -5.4988626270
 H        -9.3328217500        1.3157537003       -1.9365313133
 H        -9.2743641643        2.5477873815       -0.5872084554
 H        -6.6323897680        2.2043690657       -0.7127101224
 H        -6.9164291065        0.6266192468       -1.5038248828
 H        -6.5295385695        2.0745305702        3.8915612408
 H        -7.7480049519        2.5153724375        2.6099215440
 H        -4.9218646958        3.8358180315        2.8447451490
 H        -6.3498348128        4.3543266542        3.8701913556
 H        -6.5458972370        8.8985870922        2.7822171393
 H        -6.3865122721        7.5248696320        3.8249194181
 H        -9.1354381096        8.6348388409        3.1212877893
 H        -8.1632333901        8.9316800327        4.7245561245
 H       -12.5333216836        5.0238181659        4.8268427061
 H       -11.0403470674        4.6195304828        3.9906812410
 H       -13.5692214459        5.6938284548        2.5806218270
 H       -12.8636736611        4.0420434555        2.3427612534
 H       -11.6342718346        8.8536540347        1.5103520749
 H       -11.9153747387        9.5965952702       -0.0990640806
 H       -10.2492045257        9.4894918006        0.5250764223
 H       -11.3150465254        4.7614431223       -0.8674211528
 H       -12.2100329480        6.1547887428       -1.9130668457
 H       -13.1493769852        4.9089090523       -1.0908138622
 H       -14.1742388241        7.3109919272       -0.4415726344
 H       -13.6212247717        7.8236365363        1.1697160130
 H       -14.4334048969        6.2785382933        0.9970517891
 H        -9.6123455562        6.2939169162        7.1812741956
 H       -10.1671789829        5.0666570797        6.1517264015
 H       -11.3607508303        6.0459352434        6.9741568314
 H       -11.1634620300        8.6360500944        6.6954722502
 H       -11.1118577493        9.0422445733        4.9887750720
 H        -9.6600290899        8.9921862131        6.0756266313
 H        -4.6969524915        6.1468837483        3.3548220484
 H        -4.3987750393        7.5105691770        2.3146304641
 H        -3.8213101704        5.8789973972        1.9819065745
 H        -6.6530005275        6.0867757572       -0.5613943600
 H        -4.9279613453        5.7565648345       -0.3982332425
 H        -5.5962439928        7.4599712789       -0.2930761570
 H        -6.7532070856       -0.7735777336        3.1773914519
 H        -8.3383393574       -1.1326894020        2.4238629689
 H        -8.2748536423        0.4044334611        3.2733441478
 H        -5.6942117639       -0.5925801007       -0.1508465108
 H        -6.5050055930       -1.8024344410        0.7526053664
 H        -5.0487292402       -1.0649918476        1.4538494123
 H        -6.2642461166        2.9770015646       -3.4885223759
 H        -6.4968570014        1.9177887899       -4.9417617356
 H        -6.8477164114        1.3982408404       -3.3641394917
 H        -7.8949665394        4.5422603859       -5.0053389991
 H        -9.6640611352        4.3523858124       -4.7646997624
 H        -8.8468214601        3.3425554076       -6.0137353711
 H       -12.5957455870       -1.7608130785       -7.1483674715
 H       -13.4503650232       -2.8233907726       -6.1352720929
 H       -12.0310352808       -2.1715244262       -5.5450613503
 H       -14.2940737525       -0.0234421427       -7.5813702872
 H       -15.3463530159        0.5676221356       -6.3764826052
 H       -15.6829762437       -1.1309157215       -6.8593739129
 Na       -9.0660184510        5.4470327418       -0.3569924659
