117

 C       -15.4907769707       -2.1816620559       -4.2644590849
 C       -14.2924230837       -1.2758643938       -4.2056023799
 O       -13.6515114107       -1.1369833567       -3.1858435472
 C       -13.8314525253       -0.7228328133       -5.5818087525
 C       -12.8696252794        0.4343430162       -5.4467261209
 O       -13.0611772756        1.4554306612       -6.0638229945
 C       -11.7041112909        0.3767454545       -4.4464893681
 C       -10.8538586000        1.6543762059       -4.5436885774
 C        -9.3290106566        1.3094734306       -4.4347544083
 O        -8.9477640708        0.2003507609       -4.6204708925
 C        -8.3659948111        2.4947437123       -4.0357920684
 C        -8.6725265632        3.0510009820       -2.6293760494
 O        -8.8725970192        4.2502973245       -2.3238742626
 C        -8.7417726984        2.0479582826       -1.5033872415
 C        -7.4373457286        1.4423489002       -0.9019855147
 C        -7.9656946249        0.6293665523        0.3333796623
 O        -9.1582043204        0.4800446404        0.5016398153
 C        -6.8782788319        0.2566111758        1.5184074863
 C        -6.0961576388        1.5429144610        1.8279208687
 O        -5.0945184576        1.7706506552        1.2121354319
 C        -6.6312833209        2.5073196254        2.9442951855
 C        -6.0130276761        3.9234082565        2.9313882042
 C        -6.3927249630        4.7039254073        1.6938141419
 O        -7.1731192979        4.1909704293        0.8937400140
 C        -5.9284666780        6.1771624036        1.4381222734
 C        -7.1350329156        7.1097447490        1.8954680538
 O        -8.1668321891        7.1407914875        1.2329500665
 C        -7.0246770412        7.9385178935        3.2034191525
 C        -8.3418138398        8.1863709639        3.9244724843
 C        -8.9726468031        6.9489876448        4.5770229427
 O        -8.4353234508        5.8692464703        4.6140102317
 C       -10.4381347219        7.1797409840        5.1990832263
 C       -11.3855936555        6.7315891224        4.1083381554
 O       -11.8030900592        7.5525970200        3.3277414573
 C       -11.8341702994        5.2244487542        3.8901336761
 C       -12.6372277080        5.1175625136        2.5912901320
 C       -11.7564849307        5.5925636585        1.4425787122
 O       -10.7126671894        5.0353690880        1.3456491565
 C       -12.1616758158        6.5617875856        0.2116667608
 C       -11.0747975760        7.6281354161       -0.0377565237
 O       -10.1776236821        7.3854425111       -0.8012051041
 C       -11.1624228387        9.0462521704        0.4843673100
 C       -12.1381657657        5.4995756597       -0.9662706690
 C       -13.5911424906        7.0916103963        0.2590258290
 C       -10.6154533497        6.2483405827        6.3962300823
 C       -10.6280072036        8.6605132176        5.5878975896
 C        -4.5584710801        6.4713967902        2.2206674300
 C        -5.6996538758        6.4152842544       -0.1019799218
 C        -7.6457959361       -0.3442721074        2.7244207858
 C        -5.9419460649       -0.8071859949        0.9600185347
 C        -6.9432460487        2.0346765995       -4.1089242041
 C        -8.6543241688        3.8128745330       -4.9738494086
 C       -12.9421223486       -1.9472495939       -6.0998496949
 C       -14.9201400047       -0.2873031939       -6.5513585193
 H       -15.2005737093       -3.0237206149       -4.8332742197
 H       -16.3712454103       -1.6720308574       -4.6540437158
 H       -15.7933680315       -2.5258188872       -3.2120427408
 H       -10.9688660792       -0.4074737447       -4.6058811866
 H       -12.1223774162        0.2528919805       -3.4762574565
 H       -11.0613422797        2.4250880194       -3.7768653273
 H       -11.0361748503        2.1674755455       -5.5257054877
 H        -9.4189042103        1.3089676113       -2.0280330568
 H        -9.1983876679        2.5537406147       -0.7293570300
 H        -6.7721788164        2.2501986967       -0.6003497551
 H        -6.8440372721        0.7890618630       -1.4805706125
 H        -6.2801800226        1.9947250025        3.8944769521
 H        -7.7478164837        2.5197210504        2.8861483072
 H        -4.9374081046        3.8873079322        2.9340576478
 H        -6.5097268845        4.3737723254        3.8399713505
 H        -6.6065987435        8.9072747407        2.8882273881
 H        -6.3190455017        7.5290226533        3.9323014516
 H        -9.0005231248        8.5593023538        3.1725960330
 H        -8.1284729799        8.9455288846        4.7448736852
 H       -12.3979488207        4.8997714829        4.7537992509
 H       -10.9333841198        4.6134046423        3.8115299041
 H       -13.6383049939        5.6345650769        2.6495567724
 H       -12.7759521086        4.0198799560        2.4228960887
 H       -11.9063797679        9.2606023172        1.2920291179
 H       -11.2026938691        9.6251026008       -0.4119291875
 H       -10.1796062558        9.1825301373        0.8113542856
 H       -11.4381316481        4.6856833511       -0.7723016260
 H       -11.8918032513        6.1570594701       -1.7946565033
 H       -13.1551554273        5.0619363462       -1.2599166158
 H       -13.9309241721        7.0964554173       -0.7525929673
 H       -13.5164386565        8.1162929989        0.6614505047
 H       -14.2923801322        6.5650785404        0.8618554767
 H        -9.7660669703        6.3612883069        7.0864219914
 H       -10.4874823121        5.1922158148        6.0832506759
 H       -11.6294056231        6.2839888065        6.9128358337
 H       -11.3165724491        8.6636973359        6.4438235933
 H       -11.0396369935        9.3233962667        4.7896835655
 H        -9.7138615195        8.9823578711        6.0871685475
 H        -4.4454337542        6.0604269585        3.1971140659
 H        -4.2179796403        7.4654050786        2.3099668624
 H        -3.7301563162        5.8378983054        1.7511243937
 H        -6.5784957223        6.3685515925       -0.7472097853
 H        -4.9697325266        5.6169726422       -0.4427705469
 H        -5.2590139411        7.4513399868       -0.2321507033
 H        -6.9005782854       -0.9865197225        3.1840720036
 H        -8.4589569429       -0.9856260729        2.3965155797
 H        -8.1308418288        0.3567835871        3.3929931560
 H        -5.4545241837       -0.4792011106        0.0783610621
 H        -6.4448758465       -1.7436068858        0.7391827109
 H        -5.1576466677       -0.9695290787        1.6886955579
 H        -6.2754159370        2.5976406589       -3.4643145957
 H        -6.6457768654        2.0797760042       -5.1553805063
 H        -6.8324374197        1.0354470863       -3.7589644917
 H        -8.0221747817        4.7012763429       -4.6507188534
 H        -9.7068070829        4.0696893849       -4.9343593979
 H        -8.4330570688        3.4962974642       -5.9843947497
 H       -12.3086860651       -1.5391280361       -6.8471155960
 H       -13.4704725227       -2.7625544910       -6.6543207371
 H       -12.3582582876       -2.5063475540       -5.4007944160
 H       -14.4863035461       -0.2701073492       -7.5455921298
 H       -15.1948983481        0.7454347208       -6.3897249439
 H       -15.8199634219       -0.8512024469       -6.4384559190
 Na       -9.0632845817        5.4770172877       -0.2652618376
