117

 C       -15.6595980483       -2.0384566279       -3.9539461400
 C       -14.3318453381       -1.2919982227       -4.1451037953
 O       -13.6574622544       -1.1518012458       -3.1151356455
 C       -13.8571281137       -0.7995088311       -5.5614298373
 C       -12.8553211047        0.4922527113       -5.3642427449
 O       -13.0779647543        1.5147447924       -5.9828279855
 C       -11.6613662293        0.4250694513       -4.4269226770
 C       -10.8010869521        1.6561226014       -4.4724058556
 C        -9.3283670181        1.2942639212       -4.3493807746
 O        -8.9344220259        0.1225454117       -4.2488056093
 C        -8.2774385805        2.4602970037       -4.1542316031
 C        -8.6117737343        2.9636098964       -2.6461447853
 O        -8.7819243425        4.1291400113       -2.3866329423
 C        -8.9226366115        1.9227549647       -1.4730268839
 C        -7.6717646328        1.4530467918       -0.8331415504
 C        -8.0415165247        0.6916756195        0.4723865919
 O        -9.1459469984        0.3043584950        0.7798783862
 C        -6.8459808546        0.3397823656        1.5811466867
 C        -6.1928577808        1.6711794480        1.8594001258
 O        -5.4033322504        2.1223308652        1.0392999815
 C        -6.5442882587        2.5726019246        3.0410525287
 C        -5.9468460168        3.9613732115        2.8296732816
 C        -6.4831702505        4.7188425890        1.6327664328
 O        -7.3039798430        4.1908611645        0.9088129729
 C        -5.8648270246        6.1554302879        1.3932440112
 C        -7.0185642753        7.1190425529        1.9888999537
 O        -7.9689363244        7.3009751674        1.2740779271
 C        -6.8578572467        7.7026373929        3.3883411441
 C        -8.2108910942        8.0704896466        3.9559410259
 C        -8.9882906870        6.9423180578        4.5873058740
 O        -8.5661069306        5.8221289380        4.5918827775
 C       -10.5170638711        7.2820020275        5.1357068432
 C       -11.3635314630        6.8805458860        3.9753147223
 O       -11.7211676876        7.7322606274        3.1726212649
 C       -11.8822755766        5.4367073315        3.7729049416
 C       -12.7609239112        5.3566326853        2.5166605872
 C       -11.8389674623        5.5267045841        1.2791624732
 O       -10.7700365871        4.8623103274        1.2458726382
 C       -12.1344367807        6.4200708395        0.0892315033
 C       -11.0061762179        7.4864761272       -0.0563236332
 O        -9.9457988913        7.3120113137       -0.6730907987
 C       -11.1111232059        8.8569056909        0.5307813006
 C       -12.1680982036        5.5738877722       -1.1839814355
 C       -13.5236584743        7.1461253319        0.1941175443
 C       -10.7155730856        6.4841661112        6.4098669894
 C       -10.7487127587        8.7777010579        5.4531482783
 C        -4.5791676609        6.4260808806        2.1394666988
 C        -5.7302501625        6.3676589817       -0.1379148579
 C        -7.6123465655       -0.2834915325        2.7099649420
 C        -5.8472101355       -0.7040089883        0.9318264101
 C        -6.8260357355        1.8458728053       -4.2863085834
 C        -8.4935948186        3.6163277651       -5.1373971709
 C       -13.0852686548       -1.8903542547       -6.2730137237
 C       -15.0245167347       -0.3575606584       -6.4891882381
 H       -15.6404255594       -2.9576030105       -4.6203284387
 H       -16.5255470822       -1.3575000901       -4.1036228798
 H       -15.7856690402       -2.4095520763       -2.9656208701
 H       -11.0405065894       -0.4565234388       -4.7110831098
 H       -12.0669467335        0.2491188292       -3.3868329573
 H       -11.0713683742        2.3775326541       -3.6679481275
 H       -10.9516340658        2.2383677564       -5.3912346744
 H        -9.5116840675        1.1232246455       -1.8228652517
 H        -9.5141358535        2.6135460300       -0.7681302147
 H        -7.0477551565        2.2869499269       -0.5085604505
 H        -7.1504856990        0.7991317261       -1.5935657707
 H        -6.0408791929        2.0298740715        3.7946205429
 H        -7.6003306615        2.5942330494        3.1673889860
 H        -4.8554939695        3.8410007705        2.5702779249
 H        -6.1490071039        4.6137367865        3.6692977460
 H        -6.1260282179        8.5275235383        3.3878925653
 H        -6.5347492869        6.9146812248        4.0880539679
 H        -8.8740653016        8.5050491435        3.1186924959
 H        -8.0685528455        8.8821879719        4.6841970106
 H       -12.4326148163        5.1557655869        4.7118640644
 H       -10.9777943813        4.8017967178        3.7505691494
 H       -13.5053495062        6.1156065601        2.5647629891
 H       -13.1982389729        4.3817320669        2.4837516873
 H       -12.1288014352        9.0335058740        0.6757321752
 H       -10.5675829398        9.5277840145       -0.1606752357
 H       -10.5991449100        8.8487595547        1.5537309207
 H       -11.2429030348        4.9931637891       -1.1894510289
 H       -12.2419165403        6.1605510672       -2.0468630511
 H       -12.9451356440        4.9017943974       -1.1325422247
 H       -13.6531100141        7.7998335399       -0.6816181237
 H       -13.6106784603        7.6212744026        1.1247790248
 H       -14.3005371964        6.3499183433        0.1568254135
 H       -10.2557748057        6.9100206128        7.3039015318
 H       -10.3341266957        5.4511188296        6.3551069767
 H       -11.7612998403        6.3826815013        6.5417613670
 H       -11.8110893186        9.0351954120        5.3543734617
 H       -10.2641050142        9.3004275445        4.6552457334
 H       -10.3470722258        9.0489408055        6.4599736103
 H        -4.4427405812        6.3468323348        3.2218098315
 H        -4.2552189647        7.4569218850        1.9068249293
 H        -3.8198123412        5.8009654196        1.8465525715
 H        -6.7394670630        6.4184488464       -0.6172641665
 H        -5.2251999027        5.4992950739       -0.5170437986
 H        -5.2046398287        7.2482995035       -0.4242079800
 H        -6.9474738249       -0.6257452178        3.4564591806
 H        -8.1551484736       -1.1164382890        2.3382647029
 H        -8.3000738606        0.4228757623        3.1241322698
 H        -5.0672974936       -0.1872220227        0.2934245161
 H        -6.3490819596       -1.4691374436        0.3699097271
 H        -5.3118122817       -1.2438233197        1.7417520896
 H        -6.0719129356        2.1808469717       -3.5599247264
 H        -6.4311379661        1.9795435362       -5.2971897467
 H        -6.9198949684        0.7765561487       -3.9673006020
 H        -8.0267988191        4.4676791643       -4.7324903554
 H        -9.5671666637        3.7904535041       -5.2196333074
 H        -8.0440779936        3.3079748899       -6.1040489897
 H       -12.1415479315       -1.6082648505       -6.7814928038
 H       -13.6089795842       -2.3449856382       -7.0784804575
 H       -12.8640455155       -2.7746557830       -5.6405426722
 H       -14.6169288683        0.0527933140       -7.3780993574
 H       -15.6270359814        0.3620053139       -5.9778144660
 H       -15.7391145343       -1.1349573166       -6.7770296941
 Na       -8.8593073088        5.2798461132       -0.2134041521
