117

 C       -15.7755551319       -1.9856702517       -3.9151708917
 C       -14.3820494265       -1.2893101260       -4.0949408540
 O       -13.6338503640       -1.1359569144       -3.1311328125
 C       -13.9108858106       -0.7912487882       -5.4827402113
 C       -12.9832667484        0.4747187822       -5.3514554626
 O       -13.2143370742        1.4680950725       -5.9951264009
 C       -11.6743364941        0.3623045181       -4.4428070592
 C       -10.7527348208        1.6387033626       -4.4798691343
 C        -9.2615896046        1.2268310083       -4.3306539683
 O        -8.9537609412        0.0843952853       -4.1174380933
 C        -8.2701272291        2.4480386682       -4.0816372916
 C        -8.6099892829        2.9289943335       -2.6307856959
 O        -8.5950114355        4.1399707120       -2.4413146702
 C        -8.9519968829        1.9131441401       -1.5561981937
 C        -7.7165695935        1.3619053193       -0.7569482726
 C        -8.0670969836        0.6150167420        0.5298685914
 O        -9.2099721962        0.3032772402        0.7750410125
 C        -6.9641878026        0.3624906224        1.5859128114
 C        -6.1769842781        1.7539213449        1.7310692016
 O        -5.4540150323        2.2172543810        0.9439060833
 C        -6.5124343306        2.6443913351        3.0803237759
 C        -5.8525536962        3.9955685607        2.9620901890
 C        -6.3920793433        4.7065083872        1.7164230906
 O        -7.3232417649        4.2453712029        1.0232446700
 C        -5.8579788127        6.1411355558        1.3892533011
 C        -6.9979414273        7.0699649370        1.9732076358
 O        -7.9736604267        7.2911836896        1.3010618785
 C        -6.8596747558        7.5037340443        3.4116926777
 C        -8.1761093404        8.1215963371        4.0023646401
 C        -9.0193462965        7.0516438599        4.5764712951
 O        -8.7077828329        5.8759401132        4.6257375976
 C       -10.4684150005        7.3949095180        5.1272233234
 C       -11.4167935947        6.9469046133        3.9215314861
 O       -11.6369143579        7.8038662761        3.0984598756
 C       -12.0027664382        5.4963720731        3.7179296740
 C       -12.7394108608        5.3779909007        2.3690139997
 C       -11.7779021647        5.5484635860        1.1672792474
 O       -10.7705826733        4.8570196722        1.1603654208
 C       -12.1263498627        6.4135855257       -0.0382953119
 C       -10.9054507499        7.4848479748       -0.1445987201
 O        -9.8848830441        7.1020131460       -0.6256872431
 C       -11.1114127159        8.8780328392        0.5976356954
 C       -12.1846826929        5.6223601180       -1.3861260165
 C       -13.5556901334        7.0605638777        0.2336225924
 C       -10.7354770330        6.5141735079        6.4284228653
 C       -10.6841758451        8.8922201513        5.4329311423
 C        -4.4857571381        6.3009850221        2.0813581993
 C        -5.8224209849        6.3389867141       -0.1666145914
 C        -7.4503483323       -0.2654699752        2.8605651598
 C        -5.8717980189       -0.6089432506        0.9017844394
 C        -6.7793613193        1.8959155125       -4.1242932992
 C        -8.4519943066        3.5348141905       -5.1590412187
 C       -13.0524463742       -1.8454874161       -6.2535294567
 C       -15.0725035331       -0.3107696445       -6.4172244861
 H       -15.9816463023       -2.6779133913       -4.6464637770
 H       -16.5331183101       -1.2282811762       -3.7678817042
 H       -15.7799687017       -2.5621352177       -2.9660750126
 H       -11.1395773913       -0.5736376688       -4.7362828928
 H       -12.0434384224        0.2410618926       -3.4167778131
 H       -11.0386150570        2.3282691305       -3.7420189076
 H       -10.8912928079        2.2156328651       -5.4023069084
 H        -9.4866413167        1.0449378834       -2.0521995324
 H        -9.6679589412        2.4866010605       -0.9758693723
 H        -7.0866670389        2.2094502514       -0.3521774884
 H        -7.1392083859        0.7076835649       -1.5279285241
 H        -6.1476640305        2.0500976520        3.8996600144
 H        -7.5790973561        2.7247439083        3.0499674420
 H        -4.8099743260        3.7860366036        2.7579389733
 H        -6.0497460708        4.6784995419        3.7614305889
 H        -6.0287545647        8.2232241468        3.4655329564
 H        -6.6574971747        6.6358356207        4.0665362478
 H        -8.7393383339        8.6922337415        3.2187442946
 H        -7.9012808282        8.9093541621        4.7904836030
 H       -12.6535990732        5.2720307511        4.6069186664
 H       -11.1511282655        4.8817706271        3.8318342707
 H       -13.5791728135        6.0695125193        2.4396294571
 H       -13.1156521740        4.3884129578        2.2711006531
 H       -12.1962744186        9.0797298527        0.4754871810
 H       -10.4400197882        9.6263271535        0.2006298333
 H       -10.9476205878        8.7217140921        1.6721269977
 H       -11.1656202909        5.2385865752       -1.6152870795
 H       -12.6027981600        6.1246228111       -2.2274513207
 H       -12.7514996679        4.6980717147       -1.0561718779
 H       -13.7394004790        7.9925633373       -0.3038055629
 H       -13.7253325820        7.2119957212        1.2885707272
 H       -14.3028985380        6.3088835568       -0.1043894015
 H       -10.3927989507        6.8464853414        7.3547154317
 H       -10.2846683915        5.5468936393        6.2444268588
 H       -11.7716926796        6.2956208003        6.5008213911
 H       -11.7204058074        9.0945013495        5.2667725429
 H       -10.1391339862        9.4934862148        4.7502978878
 H       -10.3945986957        9.0977870375        6.4655449717
 H        -4.3954613478        6.1786408011        3.1571941924
 H        -4.0903898255        7.2788505360        1.9343855712
 H        -3.6976811539        5.5961492411        1.7389003793
 H        -6.7760373477        6.3850430065       -0.6218031521
 H        -5.1982062612        5.5471593652       -0.5947139288
 H        -5.3284081797        7.2700194138       -0.3629694459
 H        -6.6202323202       -0.1596430768        3.5854399171
 H        -7.5803077223       -1.3493569784        2.6673139836
 H        -8.3664883324        0.1797060543        3.3135878046
 H        -5.2177682340        0.0664242229        0.2852610147
 H        -6.3165857540       -1.3240886114        0.2470300256
 H        -5.2509005179       -1.2445921035        1.5990126821
 H        -6.0183768897        2.5011364076       -3.5819563265
 H        -6.4544655813        1.8902637109       -5.1640611616
 H        -6.7035267727        0.9401230024       -3.6109795700
 H        -7.7253835848        4.3270853122       -4.9153991340
 H        -9.4437767079        3.8923395869       -5.0132356714
 H        -8.2838034624        3.1190417825       -6.1525123265
 H       -12.2094497741       -1.5448582756       -6.8211079187
 H       -13.6486185187       -2.4026361961       -6.9971629035
 H       -12.7269982334       -2.6519797975       -5.5889473745
 H       -14.6982999852        0.4223337143       -7.1609662895
 H       -15.9151763996        0.0766945652       -5.8069314437
 H       -15.5463032180       -1.1115615469       -7.0444010767
 Na       -8.8553044944        5.1887260964       -0.2936771555
