117

 C       -10.8967722426       10.4816910811       -3.0475424152
 C        -9.9329469153        9.4084843308       -3.5154200954
 O        -9.6256131202        8.5100804960       -2.6648352817
 C        -9.0587245832        9.6691914899       -4.8130478854
 C        -7.8669987304       10.6759040966       -4.4652733411
 O        -7.8987260721       11.8169249586       -4.8705677183
 C        -6.7903976788       10.0476829904       -3.4536596053
 C        -7.2600269927       10.2050566865       -1.9513250735
 C        -6.1748215381        9.7742727884       -1.0081311777
 O        -5.0369527849        9.8526909692       -1.4275438954
 C        -6.4592337936        9.2695471565        0.5015872573
 C        -7.8922725982        8.5508786970        0.6030264275
 O        -8.9043034424        9.1298475323        0.8273875306
 C        -7.9872150292        6.9038426040        0.3969740376
 C        -9.3306001787        6.5649361992       -0.1898438261
 C        -9.6023287202        5.0828823746       -0.4268748059
 O        -9.1422347428        4.2016080420        0.2168215840
 C       -10.6261953721        4.6045777915       -1.5830523092
 C       -11.6263838472        3.6324302236       -1.0426051256
 O       -11.3212470263        2.4029499997       -1.1311656207
 C       -12.8666531809        4.0086514661       -0.3275801678
 C       -13.3837616973        2.8468240154        0.5322381386
 C       -12.5705080375        2.7570138797        1.7922265675
 O       -11.5450866560        3.3554890541        1.8619789304
 C       -12.9969081578        1.8695505148        2.9691872600
 C       -11.9880425402        0.5127591098        2.9853599014
 O       -11.1703766288        0.4851655975        2.1281936876
 C       -12.0472517311       -0.4265000332        4.1429582684
 C       -11.8415634672       -1.9038839656        3.7067237801
 C       -12.7899684037       -2.3647702437        2.5303127793
 O       -13.7807333482       -1.7342479918        2.2053680155
 C       -12.2366051041       -3.5355274980        1.5946649183
 C       -10.7308364976       -3.1779019147        1.1010158200
 O        -9.9217063700       -3.1651652711        2.0211185882
 C       -10.2839740749       -2.9203279567       -0.3548673706
 C        -8.8566327714       -2.3066694632       -0.3430515476
 C        -8.7727875767       -0.7956189045       -0.1385311980
 O        -9.7290135004       -0.1076258881       -0.3023484800
 C        -7.3279794649       -0.1461961870        0.2109101276
 C        -7.3912847238        0.1811709739        1.6944257442
 O        -8.2736594083        0.8445425419        2.1718455616
 C        -6.2490685834       -0.2300269035        2.5861130170
 C        -6.2052840533       -1.1815300944       -0.1634530159
 C        -7.0255221005        1.2295280178       -0.4826015438
 C       -12.1753620996       -4.7328402964        2.5894815125
 C       -13.2417391888       -3.6152088731        0.4545108061
 C       -12.8072436298        2.6836507712        4.2769148706
 C       -14.3688247984        1.2724962048        2.7921256639
 C       -11.3519011419        5.7822558057       -2.2533577764
 C        -9.8265619890        3.8189563716       -2.5977474807
 C        -5.2451086226        8.5259626409        1.0555573784
 C        -6.5441305024       10.7061699789        1.2817056670
 C        -8.3252607269        8.4047085841       -5.3703147580
 C       -10.0347918249       10.3088174616       -5.8615054142
 H       -11.0372195165       10.3465420638       -2.0274099681
 H       -11.7385878304       10.5100219360       -3.6910986638
 H       -10.5039409284       11.5305486642       -3.2260562598
 H        -5.8843161302       10.5853831981       -3.5078465375
 H        -6.5157116362        9.0172034744       -3.8446516333
 H        -8.1276313783        9.6003759648       -1.8330184400
 H        -7.4745087760       11.2243955438       -1.7145709483
 H        -7.8832945036        6.4950306726        1.3372139345
 H        -7.1825185833        6.5627103902       -0.2264839011
 H        -9.3660800030        7.1154447947       -1.1186635506
 H       -10.0661807845        7.0028474804        0.4109880841
 H       -13.5934372489        4.3247176340       -1.1641430888
 H       -12.8053037284        4.8798026279        0.3327621797
 H       -13.0132303252        1.9546855597        0.0500852902
 H       -14.4990226045        2.6953388833        0.5846894002
 H       -13.0157465468       -0.3302210356        4.5777161816
 H       -11.4326009661       -0.2185003584        4.9589116681
 H       -12.3410958335       -2.3767026979        4.6083768028
 H       -10.7648911142       -1.9683599646        3.5000387856
 H       -11.1050186042       -2.3337290864       -0.8029244945
 H       -10.3006163218       -3.8945554047       -0.8175055627
 H        -8.2437773673       -2.5603747539       -1.2900033893
 H        -8.2016248031       -2.8053926827        0.3753968266
 H        -5.6700640046       -1.1182093067        2.6499017359
 H        -6.5886450124       -0.0386075106        3.6298241674
 H        -5.4962173262        0.5337706587        2.5474458644
 H        -6.1906373819       -1.1142779687       -1.2957120979
 H        -6.3388565438       -2.2228243659        0.1785087485
 H        -5.2611097567       -0.8967335715        0.2625673723
 H        -7.5257561134        1.9873868201        0.1333011863
 H        -7.2983846479        1.2961605562       -1.4658553722
 H        -5.9958563928        1.4848322312       -0.2910490432
 H       -13.1330517600       -5.1977682812        2.8393692993
 H       -11.6742792639       -4.5212394070        3.5048390127
 H       -11.5373958860       -5.5349634907        2.0360973235
 H       -14.1311508931       -4.1695646996        0.7332968811
 H       -12.7600669803       -4.1005482693       -0.3839941084
 H       -13.4477473418       -2.7009866598       -0.0525642071
 H       -13.4901460474        3.4829252109        4.3402980260
 H       -11.8029022688        3.0465603745        4.2037383747
 H       -12.7947105647        2.1318896815        5.2308347111
 H       -15.0354658988        2.0111053992        2.3556984595
 H       -14.9420085619        1.0897543077        3.6947041715
 H       -14.4355601821        0.3901964538        2.0408933928
 H       -12.0810015596        5.4094250107       -2.9443643565
 H       -10.6177451531        6.4819272931       -2.8245821381
 H       -11.7908653708        6.3287221677       -1.4521160826
 H        -9.1406377502        3.1048954894       -2.1295797514
 H        -9.1603474145        4.4167740427       -3.1852629289
 H       -10.5038216261        3.2117814267       -3.2268899998
 H        -4.2807029570        9.0639881775        1.1534203971
 H        -5.0553197946        7.6564905156        0.4405819253
 H        -5.4749599689        8.1219595092        2.0525019625
 H        -6.8898457587       11.4647137376        0.5753155753
 H        -5.5516288113       10.8862158082        1.6325327197
 H        -7.3449730917       10.7060661293        2.0291097312
 H        -7.7497045545        7.8454033351       -4.6543588429
 H        -7.7655314469        8.4918538086       -6.3321175462
 H        -9.0653390968        7.6891852555       -5.7194051267
 H       -10.4103323687        9.6314627905       -6.6131880110
 H        -9.4154593053       10.9577559748       -6.4696098713
 H       -10.7784860159       10.8125949487       -5.3439003849
 Na       -9.8691799414        1.9791612920        0.8177292044
