117

 C       -15.9124615352       -1.6352795478       -3.7304321503
 C       -14.5143194806       -1.1377034068       -3.9514796836
 O       -13.6915019596       -1.1477955622       -3.0621181335
 C       -14.1055812500       -0.7184493693       -5.4577929815
 C       -13.0173169865        0.3876107460       -5.1984248929
 O       -13.3358432206        1.5539688416       -5.3824882840
 C       -11.6706147591        0.0897579838       -4.5794900035
 C       -10.6551812763        1.1628586798       -4.9851566884
 C        -9.3421722893        0.9548841471       -4.2384701955
 O        -8.9340849261       -0.1469397302       -3.8956146810
 C        -8.2566610207        2.2099929288       -3.9359080284
 C        -8.5143586630        2.8665552194       -2.4894495846
 O        -8.2446278974        4.0579772984       -2.1818567153
 C        -9.0547840188        1.9903865887       -1.3026975623
 C        -7.9331999391        1.0212393604       -0.7441646732
 C        -8.1658345329        0.6394613569        0.7997172444
 O        -9.2251162675        0.8151527051        1.3272493234
 C        -6.7673515240        0.3170368620        1.5312467892
 C        -6.1305675659        1.6753060236        1.8184846269
 O        -5.3937515031        2.1096486924        0.8827893456
 C        -6.2150163873        2.3946771724        3.1577793359
 C        -5.6602633972        3.8038013746        3.0439099138
 C        -6.3990165160        4.5567109750        1.9419675909
 O        -7.3719242274        4.0397310048        1.4891446547
 C        -5.9670818380        6.0234673753        1.5595722155
 C        -7.1180567285        6.9801321670        2.0861773199
 O        -8.1651141301        6.9464403577        1.4856062803
 C        -6.8234981604        7.6084827851        3.4320995156
 C        -8.1159822422        8.1286821659        4.1134999048
 C        -9.1013508412        7.0727513856        4.5352080379
 O        -8.7688867087        5.8819675574        4.5567817935
 C       -10.4867987574        7.5996452092        4.9413924823
 C       -11.4049562185        7.2046558946        3.7088007423
 O       -11.9606399436        8.0410548788        3.0379864870
 C       -11.6364884151        5.6839507895        3.4608077174
 C       -12.4781144120        5.5151199065        2.1617730372
 C       -11.6542879608        5.5290603158        0.9371568614
 O       -10.7083232330        4.7795252243        0.9086024311
 C       -12.0517305773        6.5661594304       -0.3442077803
 C       -10.9279498809        7.5385967175       -0.6012319591
 O        -9.7556846628        7.2152836967       -0.9187466295
 C       -11.2313715185        9.0632068749       -0.7167899404
 C       -12.2751045669        5.6842734403       -1.5647791518
 C       -13.2936178135        7.3836059937       -0.0761680167
 C       -10.9933995839        6.8218036941        6.1402037610
 C       -10.6009888086        9.1210338631        5.1540076024
 C        -4.5629813504        6.3936835770        2.0829167286
 C        -5.7620999641        6.2152764241       -0.0185313961
 C        -7.1246520409       -0.4938396556        2.8462022784
 C        -5.8613112321       -0.4626185647        0.6822104644
 C        -6.8533248323        1.6302768120       -3.9508450890
 C        -8.3704329128        3.4135148423       -4.9511278104
 C       -13.5336317507       -1.9788933961       -6.0710652527
 C       -15.3014934447       -0.1614813218       -6.2046458635
 H       -16.1129736191       -2.4529372583       -4.4823983250
 H       -16.5923838636       -0.8424559613       -3.9500340027
 H       -16.0289637310       -2.0578858496       -2.7761164806
 H       -11.3860728827       -0.9279258464       -4.8745192526
 H       -11.9046149109        0.0591745275       -3.4986432851
 H       -11.0401459342        2.1282628167       -4.7029648555
 H       -10.5619320512        1.2061305880       -6.0696287425
 H        -9.9841935830        1.3904505772       -1.5177186378
 H        -9.4097287172        2.5856305380       -0.4539155222
 H        -6.9308623417        1.6135057024       -0.7125698177
 H        -7.9560588504        0.0055362316       -1.1677033129
 H        -5.5614682006        1.8426825895        3.8608789545
 H        -7.2346826680        2.3819043669        3.5519946530
 H        -4.6373870355        3.8820762835        2.8240320165
 H        -5.8211732292        4.2006009508        4.0557972821
 H        -6.1015216042        8.4229419222        3.2114220581
 H        -6.4107513304        6.8555167300        4.1141041899
 H        -8.4945145409        9.0530402808        3.6999217203
 H        -7.8308378357        8.6416030334        5.0778515879
 H       -12.1117227835        5.3255171153        4.3373818610
 H       -10.6600785965        5.1624253482        3.4924118852
 H       -13.2688425717        6.2315799030        2.1070416198
 H       -12.9382945130        4.5242938361        2.2180243180
 H       -11.6033886453        9.2091110025       -1.7495267742
 H       -10.2795981547        9.6595185566       -0.7112048655
 H       -11.9586464199        9.3734516415        0.0243687495
 H       -11.5244798447        4.9171326388       -1.7672736059
 H       -12.2600758165        6.3313283199       -2.4842982835
 H       -13.2572731021        5.2900011224       -1.4536914351
 H       -13.3917927746        8.0156173978       -0.9575556264
 H       -13.1761515508        8.1136377489        0.7664756927
 H       -14.1727501583        6.7977035694        0.0605145024
 H       -10.6326006164        7.2524948333        7.0608810775
 H       -10.6732719409        5.8358566434        6.0745676575
 H       -12.0708161340        6.8478285817        6.2514100270
 H       -11.4011673614        9.1900956759        5.8628887601
 H       -10.8449871329        9.6103531555        4.1829896939
 H        -9.7158989248        9.5422537649        5.5229052190
 H        -4.4717561341        6.3429180293        3.1481697357
 H        -4.1872968770        7.3729554908        1.7961019498
 H        -3.7705784008        5.8023068632        1.6007917278
 H        -6.7321083725        6.1625563615       -0.5569707016
 H        -5.0900217097        5.4579663696       -0.3114270623
 H        -5.2403673497        7.1356636534       -0.1992194295
 H        -6.3039016524       -1.1023979927        3.2206954684
 H        -7.9753811192       -1.1407943474        2.7084940400
 H        -7.3112609190        0.1951285856        3.6453300445
 H        -5.4675279751       -0.0381612232       -0.2254691955
 H        -6.4251497274       -1.4519720382        0.4465806518
 H        -4.9783214316       -0.7656329515        1.2360378167
 H        -6.0625580853        2.2707348913       -3.5314036630
 H        -6.5107300247        1.4503701612       -4.9995050907
 H        -6.8662971703        0.6217610405       -3.4814276597
 H        -7.7622680697        4.2112907244       -4.5400107411
 H        -9.4207202283        3.6736433238       -5.0074938863
 H        -7.9815335416        3.0852434327       -5.8797516093
 H       -13.3488289413       -1.8489934210       -7.1496030762
 H       -14.1605261662       -2.8887998371       -5.9655451724
 H       -12.5419094404       -2.2456277903       -5.7626613945
 H       -15.1757757448       -0.0333787083       -7.2855742987
 H       -15.4640508532        0.8504226339       -5.8114049044
 H       -16.1523896052       -0.8233205916       -6.1687915006
 Na       -8.7540211228        5.3248179245       -0.1132045633
