117

 C       -16.0331253490       -1.5033963776       -3.4958376779
 C       -14.6096837111       -1.1011479445       -3.7933085512
 O       -13.8092123106       -1.1199853872       -2.8990327770
 C       -14.1183999505       -0.6897003073       -5.2990969057
 C       -13.0021386054        0.4453682212       -5.1414672003
 O       -13.3884358769        1.5927120576       -5.2388509161
 C       -11.5280413450        0.0025908050       -4.9446350062
 C       -10.5498939338        1.1392707263       -4.7332190441
 C        -9.2212498421        0.8863248996       -4.0285270832
 O        -9.0694124021       -0.1726205169       -3.4540151758
 C        -8.3294198895        2.1436797482       -3.7257158521
 C        -8.6809628149        2.6595839840       -2.3046051244
 O        -8.6091170273        3.9143975170       -2.1454310703
 C        -9.1052905646        1.7938649792       -1.1818121953
 C        -7.8914762246        0.9851631730       -0.7255782737
 C        -7.9417424271        0.7647375989        0.8226212285
 O        -8.8076078088        1.1733250150        1.5595597789
 C        -6.7525690283        0.0365744561        1.5085656741
 C        -5.8899788569        1.4218710036        1.6910942884
 O        -5.2263185268        1.9182963335        0.7874293577
 C        -6.1162776031        2.2044300381        3.0263328040
 C        -5.6440384546        3.6569068268        2.9766833874
 C        -6.4499342957        4.4994381838        2.0033316279
 O        -7.3013446762        3.9882141910        1.3109247013
 C        -5.9022744644        5.9589821237        1.7139221673
 C        -7.0335605668        6.9226193792        2.2029783266
 O        -8.1140166766        6.8793600028        1.6939682399
 C        -6.8430639573        7.8625711564        3.4824136323
 C        -8.1799598000        8.4655894840        3.8869695329
 C        -9.1580734779        7.3435618143        4.4615017487
 O        -8.7348686281        6.1822631833        4.4881089370
 C       -10.6172680937        7.7157154159        4.8402236030
 C       -11.3884459281        7.2497944723        3.5784656209
 O       -11.8240436715        8.1010885600        2.8469504967
 C       -11.7460615950        5.7527251654        3.2734761503
 C       -12.5045693334        5.6426259502        1.9798332040
 C       -11.6356238350        5.7699856049        0.7406532684
 O       -10.6626768842        5.0343087606        0.6639727058
 C       -12.1468369573        6.6223879409       -0.4441019881
 C       -10.9922861197        7.6083428343       -0.9526857253
 O        -9.8566235029        7.1286503097       -0.9772038547
 C       -11.1822526313        9.0854459438       -1.2939081710
 C       -12.2609444906        5.6840711072       -1.6758443500
 C       -13.5157478908        7.4061975356       -0.2430962660
 C       -10.8354285968        6.9052615484        6.1078215042
 C       -10.8538933076        9.2063895092        5.1301193452
 C        -4.4719852706        6.1561750533        2.4046258801
 C        -5.6667005229        6.1621502492        0.1619494859
 C        -7.2052603883       -0.5871175700        2.8259027820
 C        -5.9714483553       -0.9973060480        0.6407190605
 C        -6.8302204333        1.7657640140       -3.7427927964
 C        -8.5501182379        3.2889891680       -4.7893457808
 C       -13.5175258996       -1.8715450155       -6.0123882884
 C       -15.2551473512        0.0327517233       -6.0724818239
 H       -16.3847923440       -2.2623086425       -4.2271137544
 H       -16.6989066046       -0.6618218976       -3.7617156574
 H       -16.0756322212       -1.8433060983       -2.4448409119
 H       -11.2715443914       -0.6615017732       -5.8068141785
 H       -11.4435514508       -0.6756557276       -4.0783605510
 H       -11.0271877298        1.8377439712       -4.0292190523
 H       -10.3151942334        1.7191278802       -5.6913399104
 H        -9.9404135932        1.0643749515       -1.3625323380
 H        -9.4666183279        2.4463954203       -0.4496104595
 H        -6.9589618978        1.5040278693       -0.8390663270
 H        -7.9236020824        0.0225657315       -1.2101182915
 H        -5.6425624056        1.7038026747        3.8456362616
 H        -7.1835120352        2.0966577630        3.1871611994
 H        -4.5568430392        3.7680256719        2.7720066741
 H        -5.7722788711        4.2052155030        3.9728757677
 H        -6.0695256904        8.5994787292        3.2589627276
 H        -6.5937291164        7.2526539438        4.3583630691
 H        -8.5760013435        9.1271716294        3.1530589108
 H        -8.0499900689        9.3180374834        4.5927783387
 H       -12.2593900080        5.3347414389        4.1893713281
 H       -10.7687413523        5.2669338826        3.2839831579
 H       -13.2761219607        6.4169172968        1.9975570263
 H       -13.0167370171        4.6941208991        1.9084772590
 H       -11.7326537283        9.2315558491       -2.2660128644
 H       -10.1646886557        9.4347241811       -1.4947997310
 H       -11.5449216951        9.6443884649       -0.4740773447
 H       -11.3008520301        5.3515391492       -1.9414581399
 H       -12.7017252410        6.2107502705       -2.5503508230
 H       -12.8404631149        4.8392771926       -1.4375317427
 H       -13.7540182451        8.2051188955       -0.9158061848
 H       -13.5491339968        7.8116969012        0.8037864505
 H       -14.3048363812        6.6916225539       -0.3010805774
 H       -10.0903108802        7.1125836667        6.9131980580
 H       -10.6678069804        5.8630195494        5.8423583941
 H       -11.9088558501        7.0199237195        6.4970656653
 H       -11.8884613911        9.5014810238        4.8810536669
 H       -10.0956588964        9.8452691438        4.5620627808
 H       -10.7759143679        9.3266270282        6.1938512891
 H        -4.4298307694        6.0666992332        3.4707826715
 H        -4.1413859022        7.1581567714        2.1881979325
 H        -3.6661208759        5.5226613429        1.8782906627
 H        -6.6054453381        6.4374129653       -0.3984373929
 H        -5.1970058416        5.2409871678       -0.1887213175
 H        -4.9086991692        6.9673996296        0.1532496911
 H        -6.5890686337       -0.3173407365        3.7060549903
 H        -7.1769236549       -1.6691156277        2.7478225756
 H        -8.2244731793       -0.2819661581        3.0206536384
 H        -5.4022543865       -0.6434816314       -0.1483657348
 H        -6.6040098467       -1.8200660607        0.2185449454
 H        -5.2749926349       -1.4326732197        1.3194853652
 H        -6.2647738557        2.5869484063       -3.3225720906
 H        -6.4730097562        1.5186930553       -4.7351162704
 H        -6.6191937954        0.8661981913       -3.2413177503
 H        -7.8762275870        4.1636563469       -4.5969436204
 H        -9.5565316362        3.5582434739       -4.5049690892
 H        -8.5476970634        2.8909185855       -5.7755097543
 H       -12.7648537123       -1.7032060083       -6.7404361382
 H       -14.3267520340       -2.5089760434       -6.4464736524
 H       -13.0675270769       -2.5400176129       -5.3070096194
 H       -14.8726255880        0.6318062635       -6.9014838837
 H       -15.7515174792        0.7745082299       -5.4685650709
 H       -15.9355174180       -0.6613216066       -6.5017955372
 Na       -8.6447666002        5.0942392526       -0.2730590109
