117

 C       -10.9250079572       10.5063703878       -3.0018608897
 C        -9.8466676893        9.4456898416       -3.4583212923
 O        -9.7467676532        8.4091543847       -2.7966917549
 C        -9.1452299016        9.6119076111       -4.7996801150
 C        -7.9239952814       10.5565130613       -4.4633323571
 O        -7.8669986228       11.6506472075       -4.9395394481
 C        -6.9440382382       10.0230024254       -3.5010139162
 C        -7.4149896996       10.2364250546       -2.0616479582
 C        -6.2769143784        9.7779246104       -1.1219754478
 O        -5.1123129067        9.8591705473       -1.4480257593
 C        -6.5605343458        9.3643793638        0.4532194875
 C        -7.9110331865        8.6114479515        0.6398804737
 O        -8.9544636825        9.2485412163        0.8288150557
 C        -7.9492475544        7.0542114268        0.5213033413
 C        -9.2916851774        6.5633556491       -0.1803236449
 C        -9.5158482832        5.0091595312       -0.4869896262
 O        -8.9738114355        4.1310821068        0.1959880879
 C       -10.4999480915        4.6303039874       -1.6058541278
 C       -11.5689043540        3.5852999401       -0.9589665986
 O       -11.3314427050        2.4008544076       -1.1383319865
 C       -12.8869020359        3.9925476199       -0.2803747594
 C       -13.4128312535        2.8217988459        0.4809980708
 C       -12.5465167937        2.7389219033        1.7277855134
 O       -11.5270040112        3.4448434065        1.7971808135
 C       -12.9601465316        1.9019966553        2.9844094058
 C       -12.0254803788        0.6321659036        3.0181313354
 O       -11.1286032980        0.4498693458        2.1721369973
 C       -12.1959419667       -0.3763909114        4.1769035133
 C       -11.7651725424       -1.8271187782        3.7722773581
 C       -12.6250324429       -2.2775102226        2.5408970086
 O       -13.7039038021       -1.7361540540        2.3945706009
 C       -12.1548864713       -3.4036849503        1.6412308449
 C       -10.7237524214       -3.1311559841        1.2051399228
 O        -9.8835076062       -3.0580685311        2.0668220325
 C       -10.3659334221       -2.8830727778       -0.2519981311
 C        -8.9143878275       -2.4157659231       -0.4258796879
 C        -8.7454045091       -0.8781899131       -0.2762454481
 O        -9.7692276240       -0.1973731652       -0.2055674192
 C        -7.3764552115       -0.1860868862        0.1449152534
 C        -7.3732800615        0.1395727446        1.7958559937
 O        -8.2203366681        0.9156072307        2.1353647810
 C        -6.2616680512       -0.2697913594        2.7103503776
 C        -6.1103853754       -1.0918892653       -0.2358356651
 C        -7.0591599792        1.1892271404       -0.5238702857
 C       -12.1255526680       -4.6618681864        2.6602553078
 C       -13.2498977612       -3.5997483648        0.5663858278
 C       -12.6419233368        2.7877269860        4.2103001710
 C       -14.4384228249        1.2534830281        3.0035855021
 C       -11.2828698830        5.7700519761       -2.4384226890
 C        -9.6828518926        3.8648044297       -2.7009975436
 C        -5.3351421983        8.5906375163        0.9044532655
 C        -6.6324082536       10.6728387474        1.2654522798
 C        -8.5447932297        8.3143824710       -5.3941316931
 C       -10.0143506473       10.2613005795       -5.8861607287
 H       -10.8496157413       10.6704406182       -1.9376897855
 H       -11.8223592466       10.1647893976       -3.3851605680
 H       -10.8318292837       11.4290184693       -3.5058297196
 H        -6.0231392546       10.7084044468       -3.6800685199
 H        -6.6099363261        9.0231920248       -3.7778453945
 H        -8.1833908266        9.5028893676       -1.9348227631
 H        -7.7784767453       11.2496442902       -1.8467271159
 H        -7.8092980472        6.7247654046        1.5291432494
 H        -7.0600445954        6.7206102408       -0.0611699398
 H        -9.3296035561        7.1423875680       -1.0869647839
 H       -10.1069061601        6.9202971490        0.4230121058
 H       -13.5787787953        4.3239685867       -1.1294366385
 H       -12.8420030111        4.8525631739        0.4445587243
 H       -13.3887348023        1.8569150580       -0.0681350558
 H       -14.4549452447        2.9942648856        0.7549224514
 H       -13.1392071293       -0.2813510604        4.6603011330
 H       -11.5363083206       -0.1779740341        5.0147821959
 H       -12.0624188460       -2.3939174016        4.6218248220
 H       -10.6934841825       -1.5824058873        3.6040068929
 H       -11.1110868323       -2.1513351501       -0.6583487366
 H       -10.5591606750       -3.8110168817       -0.8132098190
 H        -8.4412226049       -2.8774728004       -1.3245414153
 H        -8.2005785504       -2.7764469901        0.3373076365
 H        -5.8581899890       -1.2968239908        2.4963403224
 H        -6.4954952060       -0.2937913195        3.6869174127
 H        -5.3490375167        0.3534993175        2.7115593235
 H        -5.9348524494       -1.0654335684       -1.3794370754
 H        -6.1922644462       -2.0870061404        0.1079050554
 H        -5.2468766330       -0.7146562761        0.2578300465
 H        -7.6541781694        2.0254305051       -0.2328612745
 H        -6.9923801427        1.0880396409       -1.6347852195
 H        -6.0653916717        1.4665569561       -0.1544943240
 H       -13.1264801143       -4.9520465428        2.9523874399
 H       -11.5458583492       -4.4993755460        3.5682874288
 H       -11.6785700022       -5.5151182206        2.1755571395
 H       -14.1733579292       -3.7388936319        1.0051558094
 H       -12.9990855276       -4.5181296910        0.0279248274
 H       -13.2958616108       -2.9090938570       -0.2641777818
 H       -13.1927442422        3.7295475044        4.1118603838
 H       -11.5898659450        2.9507073185        4.3665169108
 H       -12.9890000506        2.3111198137        5.1146577863
 H       -15.2340562323        1.8740370020        2.5303195643
 H       -14.8918524635        1.0886355796        3.9691841589
 H       -14.4084168172        0.3365995774        2.3660571179
 H       -11.9073258836        5.1636685824       -3.1730954117
 H       -10.5369834695        6.2441225324       -3.0106183362
 H       -11.8050389513        6.5256639023       -1.8816891421
 H        -9.4556869259        2.8333633085       -2.3351610943
 H        -8.7041603363        4.2772192544       -2.9783538498
 H       -10.2607127155        3.6898286586       -3.5977382241
 H        -4.3733215108        9.1265039935        0.8817194484
 H        -5.1727605385        7.6800367265        0.3147531686
 H        -5.4719106580        8.2749346093        1.9451052418
 H        -6.8759155911       11.4933807809        0.6069948766
 H        -5.6692726934       10.7858347702        1.7132583809
 H        -7.4739389663       10.6256111146        1.9524283782
 H        -8.0325928907        7.6975149075       -4.6697941498
 H        -7.8841075515        8.4643663616       -6.1893451706
 H        -9.3198998122        7.6750475883       -5.9490722534
 H       -10.4594655122        9.4988032412       -6.5693598213
 H        -9.3104188246       10.7560679977       -6.5592686770
 H       -10.7447846874       10.9365573123       -5.5054143506
 Na       -9.7912258982        1.7832386325        0.8366275668
