117

 C       -16.0705558807       -1.2336852519       -3.2212039295
 C       -14.6241081695       -1.0233543478       -3.6821060126
 O       -13.6833046902       -0.9702433867       -2.8736001389
 C       -14.2349461350       -0.6725031406       -5.1746983302
 C       -13.0332457245        0.4094338138       -4.9460479335
 O       -13.4104158857        1.5737317323       -4.9190362530
 C       -11.6031413759       -0.0533298381       -4.7596497758
 C       -10.6361486754        1.1010857530       -4.7536638336
 C        -9.4682280052        0.9753288712       -3.7989666649
 O        -9.2025579845       -0.0856852120       -3.2660522571
 C        -8.3715618922        2.1582673115       -3.5822882417
 C        -8.7419784620        2.7377598415       -2.2403576149
 O        -8.8585240417        3.9978104834       -2.1688385685
 C        -8.9968923905        1.9772465395       -0.8996335369
 C        -8.0150216741        0.8952382778       -0.5550221015
 C        -7.9578263203        0.6209565787        0.9859608946
 O        -8.7706056718        1.0004280966        1.7926991810
 C        -6.7191088135       -0.1008203550        1.4836405129
 C        -5.6739810106        1.0799947745        1.9522571306
 O        -4.6014803908        1.2744805577        1.3461989270
 C        -6.1059927202        2.1011807906        2.9471115967
 C        -5.3950114149        3.4442409258        2.7953174966
 C        -6.1566830340        4.3897445864        1.8350116656
 O        -6.9727245299        3.9617704497        1.0616600973
 C        -5.7330144883        5.8949542778        1.8543128784
 C        -7.0190273884        6.8526802482        2.1203902590
 O        -8.0819104061        6.6866326119        1.5808169846
 C        -6.9480602845        8.0391528092        3.1291823676
 C        -8.3578215148        8.5040210867        3.4459607767
 C        -9.1194349358        7.4656196640        4.2444588549
 O        -8.5603827932        6.4577856622        4.6506061610
 C       -10.6307750948        7.8236859525        4.6209924670
 C       -11.4236567093        7.5413728828        3.2915062717
 O       -11.5329034468        8.3323080206        2.3753218696
 C       -12.0623818322        6.1616228467        3.2419247022
 C       -12.7005578256        5.8914843107        1.8436545876
 C       -11.8453838782        5.8732626218        0.6357546443
 O       -10.9344442937        5.0782112826        0.6816488388
 C       -12.1986479780        6.6119418145       -0.6966791992
 C       -11.0779066587        7.5057630887       -1.0887326273
 O        -9.9091727306        7.0737501237       -1.1012528122
 C       -11.1661358945        8.9128247444       -1.7931096884
 C       -12.2476912882        5.5502765789       -1.7897194639
 C       -13.4837041020        7.4374618095       -0.6810875692
 C       -11.0919725279        6.8734874833        5.8092208013
 C       -10.6934885468        9.3305692761        5.0073149393
 C        -4.6549719294        6.2472591886        2.8833386835
 C        -5.0733023418        6.1789962450        0.4799106469
 C        -6.9847314667       -0.9291415534        2.8320976482
 C        -6.1762364634       -1.1223816465        0.5164592229
 C        -6.9784092052        1.5785415748       -3.5771647340
 C        -8.4947386417        3.2214285555       -4.6903151891
 C       -13.7308195483       -1.9438893739       -5.9566154740
 C       -15.3291452919        0.0904449582       -5.9832320411
 H       -16.6056402309       -1.9552874343       -3.9263278546
 H       -16.6153462235       -0.3149511425       -3.3566101680
 H       -16.0547787019       -1.5034767565       -2.2136028060
 H       -11.2891131671       -0.6934689537       -5.5696217296
 H       -11.4873994006       -0.7024587550       -3.9157722453
 H       -11.1758472324        1.9758912606       -4.4321677982
 H       -10.1779197188        1.1839958740       -5.7838517335
 H       -10.0638686324        1.6638175558       -1.0825527684
 H        -9.0168570462        2.7190288404       -0.1608099343
 H        -7.0516717852        1.1220033109       -0.9477044637
 H        -8.2802485227       -0.0271092450       -0.9951680085
 H        -5.8404883238        1.5977830186        3.8965297071
 H        -7.2081254733        2.1731866176        3.0144044038
 H        -4.3871742275        3.3941643997        2.3505810041
 H        -5.1102768250        3.9602028460        3.7603428981
 H        -6.3923538216        8.8934488067        2.7534458716
 H        -6.5204311099        7.7338148881        4.0815945169
 H        -8.8795196498        8.8671407791        2.5904017248
 H        -8.2276880747        9.5029666374        3.9289041773
 H       -12.8463390883        6.1506784562        4.0330149329
 H       -11.2870604794        5.4421711315        3.5180160978
 H       -13.4446325557        6.6836040293        1.6498972782
 H       -13.2829021404        4.9378490923        1.9123076633
 H       -11.8669782138        8.8161042974       -2.5958296075
 H       -10.1817718578        9.2043080726       -2.1737276974
 H       -11.3906072769        9.6591290843       -1.1099162251
 H       -11.3944921662        4.7859195115       -1.7503392944
 H       -12.2169809600        6.1666273464       -2.7474099191
 H       -13.1982183185        4.9954372219       -1.8748748649
 H       -13.6011802920        7.9053087386       -1.6547752121
 H       -13.4989940209        8.2164399673        0.1273257857
 H       -14.3565710641        6.8438218252       -0.5571158909
 H       -10.7905852570        7.2848791793        6.7613364224
 H       -10.5046158693        6.0157026920        5.6996533987
 H       -12.1337652460        6.5872965571        5.7788376727
 H       -11.4330051515        9.4662933805        5.7882353301
 H       -10.9936542053       10.0522428095        4.2145053568
 H        -9.8031874049        9.5872613165        5.4873344695
 H        -4.9834195561        6.0298745147        3.8739647276
 H        -4.5376151961        7.3100106254        2.8517196674
 H        -3.7317526039        5.6311567019        2.7778849993
 H        -5.5823111959        5.5524205776       -0.2893391984
 H        -4.0760319558        5.8686258735        0.6244860373
 H        -5.2221401978        7.2271390153        0.3007109119
 H        -6.0959371114       -1.6023739286        3.0882417882
 H        -7.9297757927       -1.5372453715        2.8672638860
 H        -7.2249185008       -0.2449339419        3.6937987314
 H        -5.8007547899       -0.7085721027       -0.3768987068
 H        -6.9561938411       -1.8671704342        0.1565773009
 H        -5.3766296002       -1.6435336783        0.9907093658
 H        -6.3303619656        2.2916055391       -3.0763196009
 H        -6.6481589177        1.4767206703       -4.6303797165
 H        -6.8081771937        0.6144080527       -3.1276342045
 H        -7.6849916510        3.9646827842       -4.5285214126
 H        -9.4728451878        3.7111824164       -4.7474932316
 H        -8.2636949472        2.6406810677       -5.5586037244
 H       -13.5909989096       -1.7118671229       -7.0011799233
 H       -14.4724755385       -2.7881420387       -5.9438720283
 H       -12.8317021589       -2.3569120605       -5.5404497059
 H       -14.9132792607        0.2378239307       -7.0262528664
 H       -15.4508992842        1.1189455213       -5.5198681942
 H       -16.3566678943       -0.3303750705       -5.9797943187
 Na       -8.7010282611        5.3079736767       -0.1026886147
