117

 C       -16.0543647303       -1.1723226166       -3.1839747275
 C       -14.6278318396       -0.9810250860       -3.6677638375
 O       -13.7361681020       -0.9766172008       -2.8260867613
 C       -14.2525392196       -0.6529638808       -5.1580601582
 C       -13.0900421633        0.3892855884       -4.9799640683
 O       -13.4188962306        1.5408054672       -4.8772586949
 C       -11.6665656167       -0.0045028824       -4.6793235405
 C       -10.6277345948        1.1381201745       -4.8291710290
 C        -9.3990546566        0.8977080117       -3.8455299924
 O        -9.3467461044       -0.0493960141       -3.1179023011
 C        -8.3707619522        2.1211591961       -3.6066815358
 C        -8.7264501328        2.8232248946       -2.1872873698
 O        -8.7785235330        4.0242626149       -2.1732523165
 C        -9.0589580595        1.9716959042       -0.8519833212
 C        -8.0344490826        0.8899878691       -0.4407961513
 C        -7.9698909641        0.6054526482        1.0744060792
 O        -8.8930760923        0.8586033363        1.8156279903
 C        -6.5547612282       -0.0920888030        1.5692369198
 C        -5.5604193465        1.0345297009        1.9460999118
 O        -4.4661635519        1.0615069563        1.4403359905
 C        -6.1340762062        2.1089069072        2.8939593560
 C        -5.3685679957        3.3746652921        2.7397705161
 C        -6.0996660186        4.3810795754        1.8275980763
 O        -6.9359286133        4.0244784708        1.0176643610
 C        -5.7067352768        5.9782988374        1.9135912361
 C        -7.0166104545        6.8364442642        2.1385572816
 O        -8.0676640357        6.6330471512        1.4912932150
 C        -6.9468083505        8.0087417099        3.0349980687
 C        -8.3434818809        8.5048179842        3.3925711235
 C        -9.0976991901        7.5252301262        4.2542928047
 O        -8.5914714439        6.5030901873        4.6731082131
 C       -10.5626785203        7.8606828568        4.6105109484
 C       -11.4276155353        7.5664397507        3.3322576964
 O       -11.3814000611        8.3036467744        2.3604224604
 C       -12.2477028116        6.2169026708        3.1913622745
 C       -12.9630685997        6.0284397661        1.8575728632
 C       -11.9297921040        5.8579682570        0.6403189042
 O       -10.9809149473        5.1302191800        0.6438504580
 C       -12.2241995603        6.6520532811       -0.7845762997
 C       -10.8927909423        7.4827852166       -1.2278503450
 O        -9.7873206289        7.0535934610       -1.1374951748
 C       -11.2308775247        8.8485504796       -1.8712143134
 C       -12.1862710656        5.5533287273       -1.9293701186
 C       -13.5875651625        7.4045447901       -0.7699994615
 C       -10.9742556204        6.9736029625        5.8183276546
 C       -10.7051407651        9.3726124304        4.9188075253
 C        -4.6879531445        6.2073951507        3.0613003461
 C        -5.0462347616        6.2490946089        0.4969209032
 C        -7.0277513915       -0.9273016905        2.8541410603
 C        -6.1070381791       -1.0315694082        0.4741404910
 C        -6.8653600134        1.6562015885       -3.5182221824
 C        -8.4023126970        3.2827031952       -4.6241652748
 C       -13.8191236772       -1.9060560243       -5.9563278248
 C       -15.4615658510       -0.0290763601       -5.9100916524
 H       -16.6558793125       -1.9399727452       -3.7251314829
 H       -16.5975251605       -0.2139400908       -3.3210480061
 H       -15.9348887289       -1.3168945348       -2.0927032216
 H       -11.2858036875       -0.8404195473       -5.2826364393
 H       -11.6616097554       -0.4652358643       -3.6470053760
 H       -11.1646091285        2.0423127110       -4.4836479787
 H       -10.2530481552        1.1891130701       -5.8583938722
 H       -10.0494895333        1.6377480893       -1.0696981689
 H        -9.1015212638        2.7512709526       -0.1077527734
 H        -7.0130304498        1.0789304497       -0.8695620074
 H        -8.2648035451       -0.0357067662       -0.9078318136
 H        -5.9599885695        1.6945760100        3.8847711306
 H        -7.1982514715        2.2201345923        2.8620195824
 H        -4.3967724568        3.2286511144        2.2436652775
 H        -4.9983148386        3.8600074009        3.6871265150
 H        -6.3103062976        8.7770169287        2.5564950338
 H        -6.5011653543        7.7469603459        3.9911983759
 H        -8.9879814601        8.6144196949        2.4809777626
 H        -8.2454196815        9.5799279139        3.6608453669
 H       -12.9468300965        6.1303240318        4.0095251899
 H       -11.4470805943        5.3915071053        3.2746466287
 H       -13.6669393598        6.8025729954        1.6750244445
 H       -13.5452316412        5.1038873997        1.9333614341
 H       -11.9627386861        8.5961156557       -2.5685090901
 H       -10.4035880965        9.4761014549       -2.2188544236
 H       -11.7246819831        9.4270103284       -1.0491438728
 H       -11.2662590352        4.9238862089       -1.9034073559
 H       -12.3080892906        6.0263698125       -2.8484024950
 H       -13.0335263217        4.8672071118       -1.8718712023
 H       -13.6493738919        8.1559372894       -1.5842217719
 H       -13.8277563444        7.8747253387        0.1498562206
 H       -14.4022904370        6.7001320342       -0.9667603491
 H       -10.4793821406        7.3697158077        6.7354985304
 H       -10.6610556883        5.9004423422        5.6737885925
 H       -12.0431032539        7.0377241801        5.8965203806
 H       -11.6291742619        9.6405287450        5.4602791955
 H       -10.7085558960       10.0263602884        4.0522945153
 H        -9.8633672994        9.5882555981        5.6094928753
 H        -5.1924167364        6.2189277285        4.0352176526
 H        -4.3438667779        7.2446950840        2.9265468494
 H        -3.9623816426        5.4857582245        3.1454888178
 H        -5.7143078357        5.6495377048       -0.1368376243
 H        -4.0730896708        5.7622231861        0.5642326730
 H        -5.0969406836        7.3088120519        0.2213426180
 H        -6.4217307096       -1.8181282958        3.0666516481
 H        -8.0936839530       -1.2269727649        2.7898819996
 H        -7.1144530775       -0.2963093759        3.7753772635
 H        -5.5626641434       -0.5274899767       -0.3441705626
 H        -6.9147416514       -1.5579805241        0.0423968994
 H        -5.4367560162       -1.7429650044        0.8846322490
 H        -6.2611140006        2.3167562816       -2.9366633433
 H        -6.4500171650        1.5950279122       -4.5233756952
 H        -6.7718390234        0.6620762759       -3.0470048531
 H        -7.5495776175        3.8581564087       -4.3301539589
 H        -9.3238110363        3.9046340831       -4.5945530885
 H        -8.1974961756        2.8462525365       -5.6250483538
 H       -13.2628978283       -1.5957348835       -6.8631583109
 H       -14.6723685819       -2.4249134837       -6.3492428169
 H       -13.2390495717       -2.6028593058       -5.3494417127
 H       -15.0854682585        0.2186370027       -6.9052237464
 H       -15.8232058189        0.8779897298       -5.4015315408
 H       -16.3523459131       -0.6856816696       -5.9813359952
 Na       -8.6859399314        5.1443048748       -0.1786613867
