117

 C       -16.0850171871       -1.1082279596       -3.1926885845
 C       -14.6339137925       -0.9904506775       -3.5644744648
 O       -13.7622324730       -1.1836716185       -2.7266705605
 C       -14.2644030300       -0.5658993727       -4.9851160732
 C       -13.1087191184        0.5630423108       -4.9027837818
 O       -13.4084288954        1.7332352617       -5.0314206302
 C       -11.7147892703        0.1070809639       -4.6353177238
 C       -10.6172202149        1.1203830483       -4.7801640913
 C        -9.5692986468        0.9848744661       -3.6950363174
 O        -9.3880711045        0.0423302811       -2.9104668275
 C        -8.4856342461        2.0893774350       -3.4776858793
 C        -8.7212581645        2.7799817026       -2.1073852010
 O        -8.5549886230        4.0412007689       -2.0673108890
 C        -9.0664265245        1.9187566937       -0.8703414500
 C        -7.8981189282        1.0290626621       -0.4294432549
 C        -7.9677044621        0.4859268535        0.9935229364
 O        -8.9431811694        0.6726997903        1.6781759084
 C        -6.6652739456       -0.1476964518        1.5532362799
 C        -5.6653841867        0.9600019552        1.9136105460
 O        -4.4687265954        0.7041083272        1.7090616716
 C        -6.0786540938        2.0694435760        2.9062765511
 C        -5.3037800375        3.3644555475        2.7357410051
 C        -5.9826139752        4.4116981764        1.7802611265
 O        -6.8631158107        3.9980159561        1.0476306060
 C        -5.6448691078        5.9553816023        1.9392926109
 C        -6.9897925878        6.7505623251        2.0541386882
 O        -7.8935858216        6.5399536712        1.3012468894
 C        -6.9926551057        8.0482133835        2.9096818960
 C        -8.3982626906        8.5936106600        3.2489964930
 C        -9.0670712159        7.6322410645        4.1927790786
 O        -8.5072964519        6.6333383160        4.6220732209
 C       -10.6037581952        7.9188371565        4.5447120024
 C       -11.3744135253        7.5277025788        3.1673072974
 O       -11.1567912775        8.2326674079        2.2086645654
 C       -12.3007280371        6.3418433803        3.0649518209
 C       -12.9862168698        6.3589845743        1.6590556958
 C       -11.9105227756        5.9689611292        0.5664623673
 O       -10.9667955941        5.2041928666        0.8432718068
 C       -12.2007203052        6.5357447538       -0.9024830962
 C       -10.9694651981        7.4952795572       -1.3120086026
 O        -9.8202765305        7.0468181483       -1.0686524479
 C       -11.2123455240        8.8996804138       -1.9323207498
 C       -12.1714086016        5.3470589965       -1.9567944661
 C       -13.5023937098        7.3370843237       -1.1265998906
 C       -11.0418507986        7.1335160875        5.8863980422
 C       -10.9086449961        9.4017722353        4.7565558781
 C        -4.5953464966        6.2199532134        3.1498185845
 C        -5.0038905905        6.4808736641        0.6444314832
 C        -7.0197708249       -0.9641506284        2.8140132937
 C        -5.9694376832       -1.0885064689        0.4846898839
 C        -7.0512590337        1.4259186701       -3.4413339704
 C        -8.4365602926        3.1472166836       -4.5939376086
 C       -13.7875701692       -1.8656162151       -5.6389993713
 C       -15.5499594613       -0.0040990681       -5.7472165293
 H       -16.5247299104       -1.8957775716       -3.8400176197
 H       -16.6115987869       -0.1593277190       -3.3408406193
 H       -16.1543742197       -1.3597762203       -2.1654306172
 H       -11.4637968582       -0.6768263778       -5.3777946019
 H       -11.7448900781       -0.4753940233       -3.7177417639
 H       -11.1126355311        2.0784845581       -4.8343391878
 H        -9.9983675248        0.9034544732       -5.6627069495
 H        -9.9615156873        1.2709506351       -1.1322220466
 H        -9.2736539674        2.6882624835       -0.1214084521
 H        -6.9200873741        1.5154492305       -0.4519477266
 H        -7.7012048216        0.2629450283       -1.2698653661
 H        -5.9438970333        1.7130327604        3.9453025812
 H        -7.1898112663        2.1751961917        2.7997564708
 H        -4.2968613647        3.1190406591        2.4121954787
 H        -5.1004876909        3.8184192867        3.6714282793
 H        -6.4704627131        8.7052817744        2.2018166270
 H        -6.4179036905        8.0718961902        3.8572979457
 H        -8.9909898379        8.9026941856        2.3764676744
 H        -8.1927189736        9.5549663027        3.7873255818
 H       -12.9795913598        6.2802404359        3.9448594894
 H       -11.5432289941        5.6208128277        3.1036000907
 H       -13.3368132463        7.3999214932        1.4587279304
 H       -13.8497224351        5.7125615211        1.5192106044
 H       -11.5461289834        8.7536732483       -3.0221964771
 H       -10.1970141748        9.3082502984       -1.7749478855
 H       -11.8550639031        9.5730208197       -1.4043305091
 H       -11.2277978320        4.8581963616       -2.1033853987
 H       -12.5350226297        5.6465641163       -2.9454914853
 H       -12.8407610940        4.6203082833       -1.6498106661
 H       -13.7557879225        7.3920830949       -2.1576759819
 H       -13.4112158951        8.3966929593       -0.7499275377
 H       -14.3216519196        6.9308585228       -0.5616204119
 H       -10.1214562014        7.0840023008        6.4783975503
 H       -11.4150356704        6.1423645464        5.6995453138
 H       -11.7982465650        7.7528711046        6.4760473260
 H       -11.9702013259        9.5874067841        4.5729001449
 H       -10.4548461385       10.1171239454        4.0025752167
 H       -10.6602240439        9.7058454657        5.7567163671
 H        -4.9066598923        5.7409794584        4.0636896272
 H        -4.4465944319        7.2665322794        3.3068594373
 H        -3.6115471395        5.6905463234        2.8467554084
 H        -5.8368164022        6.7574932386        0.0036519711
 H        -4.3240791615        5.7382991673        0.2654948614
 H        -4.5384117263        7.3764971537        1.0062143067
 H        -6.1709101807       -1.5751080822        2.9876344053
 H        -7.8082198851       -1.6376505179        2.6470911437
 H        -7.1945636030       -0.4167602593        3.6782262478
 H        -5.5865098616       -0.5435915680       -0.3494759073
 H        -6.6925838757       -1.9008437850        0.1132378690
 H        -5.1126799975       -1.6440415673        0.9169235923
 H        -6.2749723442        2.0712790393       -2.9645198580
 H        -6.6687427496        1.2270608247       -4.4556573743
 H        -7.0763969274        0.5628355515       -2.8172415639
 H        -7.7706390467        4.0132734410       -4.3878731358
 H        -9.4617392772        3.4435091683       -4.5609960320
 H        -8.2557552203        2.7132143948       -5.5434216884
 H       -12.9264296675       -1.6553910345       -6.2526121732
 H       -14.5431334341       -2.2351904217       -6.3921239807
 H       -13.5351985055       -2.6133369369       -4.8833018528
 H       -15.2927013347        0.1386362881       -6.7638696678
 H       -16.0293995092        0.8043961231       -5.2770121450
 H       -16.2639198502       -0.7618444308       -5.7718590211
 Na       -8.9357957311        5.0379610196       -0.1460397040
