117

 C       -16.1777370284       -1.1377154666       -3.0315178600
 C       -14.6667647276       -0.9229864484       -3.4120821113
 O       -13.7620171548       -1.3057630526       -2.6751481543
 C       -14.2469016507       -0.5064444422       -4.9009542310
 C       -13.1379694386        0.6047522472       -4.9242801506
 O       -13.4225294611        1.7562560894       -5.1459631621
 C       -11.7245421532        0.0614588345       -4.6184641688
 C       -10.6201099718        1.1102929615       -4.6707195846
 C        -9.5592298178        0.8925502706       -3.6235096426
 O        -9.6037886560       -0.0453135639       -2.8886939126
 C        -8.5413369656        2.0727905680       -3.4420003542
 C        -8.6607198651        2.7609252689       -2.0830528140
 O        -8.5048315926        3.9933745201       -1.9990526454
 C        -8.9995597168        1.9406655367       -0.8279149466
 C        -7.7708330127        1.1622066185       -0.4716839443
 C        -7.9425878076        0.5380476204        0.9572901962
 O        -8.9802836044        0.5884967933        1.5617602723
 C        -6.6806665181       -0.2622451541        1.5265782901
 C        -5.6249812800        0.8338133101        2.0948349115
 O        -4.4427799724        0.7781972392        1.8187027865
 C        -6.1242791204        2.0397962353        2.8865228640
 C        -5.2614658459        3.3220780655        2.7530246430
 C        -6.0012120769        4.3859161769        1.8248460891
 O        -6.8230973128        4.0186424367        1.0119022986
 C        -5.5776279486        5.9236660675        1.9264667394
 C        -6.9533300736        6.8462527490        2.0391290516
 O        -7.9383774223        6.5773025329        1.3411790099
 C        -6.9768256032        8.1430356153        2.8703099117
 C        -8.3769459064        8.5919941309        3.2288457130
 C        -9.0799377980        7.7081442032        4.1841989559
 O        -8.5635886218        6.7107402655        4.6319798419
 C       -10.6450573781        7.9962052146        4.4282548279
 C       -11.3027904113        7.5232658404        3.1369078244
 O       -11.0716304868        8.1977536717        2.1419085783
 C       -12.3007216303        6.4063211308        3.0157592699
 C       -12.8643236931        6.4802855330        1.5955926292
 C       -11.9589073150        6.0726290906        0.5109873293
 O       -11.0698172697        5.3356652996        0.7940817096
 C       -12.1795686186        6.5278855683       -0.9837543944
 C       -10.9199774336        7.4633201453       -1.3250882529
 O        -9.8238470453        7.0583618914       -1.0582983572
 C       -11.0964779673        8.8196056318       -1.9124984998
 C       -12.0762176114        5.2126862631       -1.8108211031
 C       -13.5410818429        7.2435072418       -1.1981983423
 C       -11.1207722588        7.1104755834        5.6743215124
 C       -10.9536656208        9.4698616297        4.6648655625
 C        -4.6183062141        6.2088135593        3.0743012572
 C        -4.8589632970        6.5158792271        0.6194832693
 C        -7.0176613607       -1.0977732707        2.7837169171
 C        -6.0750501580       -1.2005871333        0.4651045539
 C        -7.1510102901        1.2966312666       -3.5695195896
 C        -8.5002751539        3.1398792897       -4.6469029617
 C       -13.7001509702       -1.8226932420       -5.5461048912
 C       -15.3808846230        0.1564794114       -5.7502892113
 H       -16.5756264564       -1.8688128392       -3.7936250122
 H       -16.7086764567       -0.2313469753       -3.0403461687
 H       -16.3037236946       -1.5318191585       -2.0702598647
 H       -11.4518313773       -0.7423933676       -5.2583259840
 H       -11.8203046578       -0.4029234201       -3.6741336701
 H       -11.1508313083        2.0152229873       -4.4228817310
 H       -10.1440567366        1.2089703701       -5.6831393155
 H        -9.7928356629        1.1464272856       -1.0334250408
 H        -9.2376352327        2.6720810295       -0.0659883769
 H        -6.7834460737        1.6187368125       -0.5218655591
 H        -7.6595771275        0.4522270737       -1.2148946728
 H        -5.9738566301        1.7656776567        3.9689562960
 H        -7.2462087133        2.1398621174        2.7899540676
 H        -4.3245276199        2.9930997086        2.3232653123
 H        -4.9212303527        3.7234575109        3.7544759844
 H        -6.4042117464        8.8912037700        2.3130183659
 H        -6.4342701876        7.9394603141        3.7923723290
 H        -8.8957951333        8.5648636373        2.3049259748
 H        -8.3929651176        9.6701429111        3.5387549069
 H       -13.1179425536        6.6055005959        3.6890286941
 H       -11.7616451333        5.4918931956        3.2198624176
 H       -13.1395883040        7.5269825845        1.4089146476
 H       -13.8496723019        5.9086063824        1.5169024959
 H       -11.4247985529        8.6570427566       -2.8965730284
 H       -10.0860635737        9.2759167777       -1.7606851205
 H       -11.8065683758        9.4521353457       -1.4091299182
 H       -11.0413979291        4.6886439295       -1.7428144414
 H       -12.2088206931        5.3898903619       -2.8832900799
 H       -12.8672716898        4.4766022807       -1.5130698364
 H       -13.9763167987        7.1976039931       -2.2012869062
 H       -13.5063499974        8.3097306168       -0.9294263187
 H       -14.2021729986        6.8045198648       -0.4881945145
 H       -10.2281732947        6.8617818025        6.2394284037
 H       -11.5165654328        6.2253388891        5.2735353712
 H       -11.8110008669        7.5970078825        6.3104705188
 H       -12.0397041095        9.5321242933        4.6484396593
 H       -10.6749896271       10.1989268538        3.8854275276
 H       -10.6087103719        9.8136391253        5.6023544435
 H        -5.0019462327        5.7854805883        4.0135738685
 H        -4.4035008821        7.3045401381        3.1474768473
 H        -3.6791693414        5.6927862287        2.8366057270
 H        -5.6829477131        6.7169880681       -0.0730566249
 H        -4.1967048364        5.7684582884        0.3232049419
 H        -4.3555230444        7.3930378804        0.9258267353
 H        -6.1405094032       -1.3584997810        3.3704690521
 H        -7.5392038424       -2.0337585463        2.5764224104
 H        -7.6112437217       -0.4182059271        3.4085873310
 H        -5.8701457049       -0.8630659476       -0.5632050674
 H        -6.7362790291       -2.1158333439        0.4832712497
 H        -5.1401044917       -1.5816161849        0.8655667751
 H        -6.3184020598        1.8456735986       -3.1373468971
 H        -6.8563912137        1.1117153625       -4.6113139049
 H        -7.2186446998        0.4145858915       -2.9413112270
 H        -7.7453532163        3.9015951256       -4.4579742212
 H        -9.4964811510        3.5638225044       -4.7307855375
 H        -8.3142257596        2.6218079525       -5.5718734828
 H       -13.0789270169       -1.5874846726       -6.4283212824
 H       -14.5658611240       -2.4109689039       -5.9263929018
 H       -13.1325650979       -2.3494176825       -4.7925056473
 H       -15.0432545104        0.1841744488       -6.7738219631
 H       -15.6819273988        1.0979646108       -5.3145957322
 H       -16.2649830213       -0.4536784202       -5.7702114476
 Na       -9.0351746567        5.1196123617        0.0039477147
