117

 C       -16.0980643009       -0.8362684303       -2.9253371449
 C       -14.6785085405       -0.8753987706       -3.4174425642
 O       -13.7645339918       -1.1435642685       -2.6272713886
 C       -14.4200807651       -0.5842787391       -4.9051870307
 C       -13.1922922038        0.4506673700       -4.9630573794
 O       -13.5033821002        1.6056694459       -5.1403737278
 C       -11.8432197303        0.0623565968       -4.4945868000
 C       -10.8259214906        1.1770338793       -4.3811975760
 C        -9.6891790045        0.9461234228       -3.4522181294
 O        -9.5111891198        0.0558140281       -2.6701939305
 C        -8.4539468301        2.0285461372       -3.5199228517
 C        -8.4883875217        2.7135517013       -2.0837907149
 O        -8.5307417298        3.9697568275       -1.9473013365
 C        -8.6669191771        1.9276848303       -0.7868959151
 C        -7.4564764078        1.1671429773       -0.2639086857
 C        -7.8551736051        0.3049034427        0.9751903138
 O        -8.9542298644        0.3411069090        1.4355915452
 C        -6.6416872190       -0.3918000184        1.6979562314
 C        -5.6759243137        0.8117040291        2.1181712673
 O        -4.4794855618        0.7549624091        1.8362552087
 C        -6.3875238672        2.0764542160        2.7238930504
 C        -5.4926028693        3.3091581435        2.7086778292
 C        -6.1105013178        4.4737576143        1.8587747400
 O        -6.9304515822        4.1371177902        1.0110117509
 C        -5.6362495276        5.9149168676        1.9727086498
 C        -6.8714788401        6.8911533620        2.1419395246
 O        -7.8998480698        6.6785176961        1.5172113377
 C        -6.7800462377        8.1083103136        3.0424152971
 C        -8.1878471952        8.7570378622        3.2231519139
 C        -8.9743396235        7.8414392695        4.1009103507
 O        -8.5178700976        6.9130751606        4.7597217610
 C       -10.5498381782        8.0659679607        4.1674118281
 C       -11.3384975854        7.7060812360        2.7604236970
 O       -11.0141677949        8.2484215273        1.7248439996
 C       -12.7092300520        6.9678061250        2.8681154241
 C       -13.1931700328        6.6179463480        1.4035770101
 C       -12.0345312910        6.0725845822        0.5230839974
 O       -11.1662972446        5.3837578868        0.9929866182
 C       -12.0479717235        6.3212017876       -1.0342349519
 C       -10.8920121199        7.2679462336       -1.3238736345
 O        -9.7278213086        6.9582130151       -1.1999869145
 C       -11.1392449329        8.7232284948       -1.9397049906
 C       -11.7626700131        5.0362466925       -1.8673784282
 C       -13.3724212142        7.0091601082       -1.5740669627
 C       -11.1331384532        7.1620210788        5.3240529770
 C       -10.7667381841        9.5832496150        4.5712941328
 C        -4.5986393495        6.1017974344        3.0642093221
 C        -4.9080707129        6.1399745801        0.5872871970
 C        -7.1483468476       -1.0940940097        2.9683331227
 C        -5.7632692036       -1.2887290450        0.8429634937
 C        -7.1580286813        1.1929955239       -3.6674628712
 C        -8.5728315756        3.1949118340       -4.5763811772
 C       -14.1445429163       -1.9302255107       -5.6421081155
 C       -15.7247733698        0.0800583945       -5.4954667782
 H       -16.6784748674       -1.6183218553       -3.5399071197
 H       -16.5120511354        0.1669647719       -2.7776306217
 H       -16.1347812801       -1.2724418988       -1.9549271126
 H       -11.4076392838       -0.7890129751       -5.1295168217
 H       -11.9474699749       -0.3496214931       -3.4458012292
 H       -11.2376811310        2.0922674693       -3.9296523323
 H       -10.3920641375        1.5442970016       -5.3276483038
 H        -9.5007312272        1.2376940233       -1.0767874049
 H        -8.9074547883        2.5198142660        0.0634310731
 H        -6.5795491192        1.8255995130       -0.0396647082
 H        -6.9579060490        0.4471412203       -1.0016304556
 H        -6.5574905338        1.8561332942        3.7664418889
 H        -7.3513209455        2.3675243736        2.2376156213
 H        -4.5512847280        3.0359795865        2.2107311090
 H        -5.2280671472        3.6514813724        3.7004617639
 H        -5.9609771878        8.7510524552        2.6797773558
 H        -6.4523336472        7.8005317583        4.0686075224
 H        -8.6714384575        9.0237044034        2.2636023172
 H        -8.0048881525        9.6470627443        3.8989791862
 H       -13.3716052268        7.7698755162        3.3284621332
 H       -12.6431376850        6.0798640813        3.4579054406
 H       -13.4962687808        7.5285155884        0.8962719118
 H       -14.0529923060        5.9887157016        1.3949636050
 H       -11.8205903031        8.6729859186       -2.8084318918
 H       -10.1005804434        9.1296288770       -2.2109426487
 H       -11.6459384589        9.3440750653       -1.2245570278
 H       -10.8144721938        4.6041686356       -1.6179260821
 H       -11.6420711589        5.2928746862       -2.8624564684
 H       -12.4969557477        4.3353437192       -1.7891410327
 H       -13.1363196916        7.3398829708       -2.5706892024
 H       -13.5872834765        7.9812146751       -1.0495104049
 H       -14.2291601159        6.3777328533       -1.6585773496
 H       -11.0505655304        7.5959805485        6.3624847429
 H       -10.6078614727        6.2174835152        5.1955706374
 H       -12.2334363327        7.0149538371        5.1389810236
 H       -11.7788224304        9.6957776317        4.9983171965
 H       -10.5970160245       10.4022506959        3.7782977190
 H       -10.0595086212        9.9108058251        5.3031151617
 H        -5.0134012616        5.9202557159        4.0206712135
 H        -4.1467009658        7.0502755964        2.9801049332
 H        -3.7140005031        5.4748682578        2.7903777032
 H        -5.5132219575        5.5356994610       -0.1470416383
 H        -3.8827701466        5.8383862303        0.7242941357
 H        -4.9555165710        7.2257611464        0.4813928507
 H        -6.3512080657       -1.0669701679        3.7118280297
 H        -7.3683136863       -2.1297607713        2.7901242140
 H        -7.9582430574       -0.5599353137        3.4334001462
 H        -5.1725994170       -0.7270900162        0.1959658963
 H        -6.4392260953       -1.9746730623        0.2447039244
 H        -5.1171352927       -1.9254273550        1.4081521336
 H        -6.2948612186        1.8461177694       -3.5412744510
 H        -7.0739160139        0.8383920510       -4.7057733735
 H        -7.0834430237        0.3629549023       -2.9987193627
 H        -7.6185050860        3.7939941334       -4.4865087766
 H        -9.4594049574        3.8148908344       -4.4357899710
 H        -8.5893066500        2.8073834869       -5.5812339169
 H       -14.1267879605       -1.7220035927       -6.6969810146
 H       -14.9527234868       -2.6606181869       -5.3434483317
 H       -13.1629124837       -2.2532734504       -5.3610676815
 H       -15.5375275062        0.5290745682       -6.4912470663
 H       -16.0454338295        0.8628966574       -4.7988590436
 H       -16.5290329222       -0.6273185588       -5.6072225673
 Na       -8.8070172934        5.1234628103       -0.0322956070
