117

 C        -4.9060731338       -4.6838852499        4.2398574405
 C        -5.7145994312       -5.4797317401        3.1700236562
 O        -5.1233522252       -6.2277608229        2.4303824647
 C        -7.3065354598       -5.2883030536        2.8758808039
 C        -8.1795239230       -4.3850707783        3.7505209705
 O        -8.5049934216       -4.8303959770        4.8449658354
 C        -8.3556818861       -2.8565404997        3.2854329963
 C        -9.1449845314       -2.1155436891        4.4454968175
 C        -9.9158432604       -0.8789045538        4.0301881073
 O       -10.3543711615       -0.7927314338        2.8751593676
 C       -10.3141538691        0.2868219613        4.9731344140
 C        -9.7164523521        1.7962559783        4.3573196385
 O        -8.8486744349        2.3054340724        5.0040571837
 C       -10.3388650514        2.3612928491        3.0650310532
 C        -9.3853855260        2.0531334828        1.8508167558
 C        -9.8529746628        2.7110867828        0.6225729450
 O        -9.4373727572        3.8799752823        0.4255299206
 C       -10.7222993719        2.0133101504       -0.4483631413
 C       -12.2260332200        2.4720004123        0.0294281328
 O       -12.4498954771        2.5828687525        1.2384812025
 C       -13.3971842384        2.4991225538       -0.9956480587
 C       -14.0972374527        3.8625844857       -0.9915483181
 C       -13.0844270014        4.9881198922       -1.1353260798
 O       -11.9838800052        4.8150733349       -0.6510137142
 C       -13.3155058791        6.3421818557       -1.8639791857
 C       -12.2525743919        6.5591517294       -3.0704692102
 O       -11.3015005817        5.8260762853       -3.1113894537
 C       -12.7045408346        7.2953723829       -4.3569919637
 C       -11.4367955292        8.1227475071       -5.0681689458
 C       -11.3079438838        9.5862470714       -4.5958185507
 O       -12.1507251384       10.2169977455       -3.9992208939
 C        -9.9171499540       10.2498744145       -4.9831357814
 C        -8.9680488984        9.9427492605       -3.7775203167
 O        -7.9219826649        9.3244056311       -3.9741125393
 C        -9.4731381659       10.5228254630       -2.4056028948
 C        -8.6396376269        9.9933815092       -1.2590780464
 C        -8.5703061708        8.5170961089       -1.0435964944
 O        -9.6258551689        7.8748376542       -1.0150207772
 C        -7.2503422531        7.8748616111       -0.6530930870
 C        -7.0980729324        6.9542982892       -1.8946538768
 O        -7.9274022541        6.1515112475       -2.2654433681
 C        -5.8254904682        7.1790661535       -2.7867815153
 C        -6.1958456275        8.8939474739       -0.3933330226
 C        -7.4771772504        7.0573193687        0.7050097429
 C        -9.2233856550        9.7453684167       -6.3218889099
 C        -9.9735528799       11.7630111316       -4.9977366880
 C       -14.7738562959        6.2846971498       -2.4659869882
 C       -13.0841549982        7.4890461063       -0.8833028934
 C       -10.3422257161        2.4381731983       -1.8821681576
 C       -10.6301745947        0.4925102022       -0.2908690065
 C       -11.8516713705        0.2731240671        5.0263083636
 C        -9.8316031818        0.3361945688        6.4880138355
 C        -7.1766904436       -4.8215775938        1.3879341820
 C        -7.8332866787       -6.7581892841        2.9216431281
 H        -5.1739184793       -3.6325266886        4.1724760795
 H        -3.8706027858       -4.7221259039        4.1536654128
 H        -5.3099082481       -5.0397383285        5.2256554745
 H        -8.9088832817       -2.8708493254        2.2936839250
 H        -7.3006172510       -2.4419609173        3.2792944224
 H        -8.3877924199       -2.0195576582        5.2431755302
 H        -9.9082791943       -2.8183090752        4.9498701228
 H       -10.5339957615        3.4665497585        3.1061937168
 H       -11.2595419725        1.7667819963        2.7990064838
 H        -9.3230285050        1.0370176155        1.6349263456
 H        -8.3647614008        2.3671178315        2.0084006268
 H       -14.1233034565        1.7213168132       -0.7773812874
 H       -13.0742836596        2.2961188285       -1.9981870451
 H       -14.6802111243        4.0501885143       -0.1165202991
 H       -14.8818591181        3.8588228319       -1.6851743572
 H       -13.5739029060        7.9689191110       -4.1999554839
 H       -13.1635019061        6.4069011961       -4.9614516258
 H       -11.6195679096        8.0914829246       -6.1506615845
 H       -10.4601536345        7.6158003387       -4.8266623327
 H       -10.5184103183       10.3117288640       -2.3187770689
 H        -9.3833037844       11.6865900396       -2.3518812558
 H        -9.1697896929       10.4112287334       -0.3867267334
 H        -7.6546236027       10.5761916152       -1.1537559604
 H        -5.7126325864        8.1819746674       -2.8109691637
 H        -5.7411921300        6.5951198542       -3.7388322154
 H        -4.9876908718        6.8257935359       -2.1305432465
 H        -6.3485669817        9.6224351783        0.4232811952
 H        -5.9795541705        9.4216579579       -1.3019677359
 H        -5.2505393462        8.3292719038       -0.2063363866
 H        -7.6615084538        6.0896183104        0.2943618281
 H        -8.2315533850        7.4081357321        1.2462673640
 H        -6.5378888917        6.8363013181        1.3256358716
 H        -8.2013846944       10.0986743239       -6.1854964167
 H        -9.7227797953       10.1493165035       -7.1796994786
 H        -9.1104874942        8.6394132249       -6.4095563377
 H        -8.9876698286       12.2360973216       -4.5686815531
 H       -10.7097223575       12.1364904828       -4.3406253233
 H       -10.0298379738       12.3358127065       -5.9516969898
 H       -15.5383019507        6.0836647713       -1.6841394986
 H       -14.9838487670        5.5431924777       -3.3144080156
 H       -15.0103481950        7.2764397697       -2.7434962579
 H       -13.7517398827        7.4464911694       -0.0296655489
 H       -13.1408340553        8.4467806318       -1.2299770870
 H       -12.0951926409        7.2939908728       -0.5311859846
 H       -10.5695957994        1.6795600614       -2.6253763705
 H        -9.3608977639        2.6654375901       -1.9121413715
 H       -10.9900252133        3.2882591568       -2.1514872828
 H       -10.9384476661        0.1668335153        0.7137692083
 H        -9.5589271078        0.2007096749       -0.5500526197
 H       -11.1523950059       -0.0536171843       -1.0361453133
 H       -12.2493028563       -0.6359354921        5.4651068190
 H       -12.3667465103        0.3936875484        4.0236455222
 H       -12.2278764074        1.0308219234        5.6867603243
 H       -10.3043104733       -0.5055320653        6.9192134833
 H       -10.1442001945        1.2960880558        6.9039068438
 H        -8.7707373456        0.3103870031        6.5582397531
 H        -6.8934038803       -3.7531057384        1.2550620274
 H        -8.1403845754       -4.9372168046        0.8849829669
 H        -6.5096338856       -5.4293421887        0.7323950799
 H        -8.1427433201       -7.0317597072        3.9590783256
 H        -7.1019302191       -7.4742550689        2.5663545022
 H        -8.6872624417       -6.8177241785        2.2772405119
 Na       -9.9956943816        5.6582953558       -1.2071279668
