117

 C       -16.2308787907       -0.6396472421       -2.6739999759
 C       -14.8126293412       -0.8441635821       -3.1740975371
 O       -13.9544508087       -1.3581574965       -2.4865399032
 C       -14.5806549489       -0.4980035270       -4.6732582969
 C       -13.4383585852        0.6050552524       -4.8848986415
 O       -13.5572476811        1.7665714011       -5.2226590051
 C       -11.9911731975        0.0971459238       -4.5209163919
 C       -11.0212178689        1.2544457765       -4.4543170038
 C        -9.7782721882        0.8574534643       -3.5873590515
 O        -9.5924387003       -0.1411868144       -3.0022657604
 C        -8.6202198824        1.9369057488       -3.4528709037
 C        -8.4598786957        2.5456962353       -1.9726079769
 O        -8.4692199682        3.8073802268       -1.8754584783
 C        -8.5374952229        1.6992707867       -0.7501968280
 C        -7.4166429425        0.6539008337       -0.4647221894
 C        -7.7545891278        0.0397787947        0.9576976011
 O        -8.8967251333       -0.2896890129        1.1822861628
 C        -6.5557716480       -0.2462055141        1.9198025825
 C        -5.6346906401        1.0236138010        2.3001466403
 O        -4.5312645595        1.1149138871        1.8671048373
 C        -6.3478844430        2.0172688781        3.2266201597
 C        -5.8458337995        3.4818840813        3.2688994210
 C        -6.2957605360        4.4038844857        2.0924528061
 O        -7.1455586721        3.9732837193        1.3240657192
 C        -5.7211052388        5.7766894057        1.9171090438
 C        -6.9035087742        6.8605564046        2.1360621526
 O        -7.9916530702        6.7630269269        1.5438699902
 C        -6.7155566660        8.0158406393        3.1026127437
 C        -8.1283020351        8.7689370675        3.2213059214
 C        -9.1003716118        7.8537565921        3.9956918611
 O        -8.7305065014        6.8020390692        4.5000222179
 C       -10.5813138995        8.4050220985        4.0814555322
 C       -11.1060537808        7.9990546115        2.5626592910
 O       -10.5570619837        8.5099533912        1.5870187776
 C       -12.2427328258        7.0352153456        2.5320402676
 C       -12.7828123276        7.0162579227        1.1461229525
 C       -11.7886043834        6.1814750953        0.2968360972
 O       -10.9859630260        5.5146432925        0.8603275114
 C       -11.9069292334        6.1777888896       -1.2353282591
 C       -10.7349534274        7.2358384756       -1.5344677373
 O        -9.5871391260        7.0064034696       -1.5082117140
 C       -11.2430101995        8.6581376833       -1.8073659272
 C       -11.3936184915        4.8685005624       -1.8364330590
 C       -13.2215143628        6.6348287919       -1.8713364856
 C       -11.3592756919        7.5691064168        5.1755913468
 C       -10.8041997685        9.8750539174        4.2193398123
 C        -4.5201592697        6.0563842751        2.8406870437
 C        -5.1874160606        5.9367627632        0.4353807968
 C        -7.1836121934       -0.8808949814        3.2469578044
 C        -5.5416849662       -1.2477502918        1.2536101974
 C        -7.2679655842        1.2212549105       -3.7755228860
 C        -8.7818765566        3.0472867671       -4.4356280389
 C       -14.0713785469       -1.8587071787       -5.2832646238
 C       -15.7897679026        0.1074122044       -5.3102836373
 H       -16.8266335822       -1.4619227637       -3.2065124237
 H       -16.6216444950        0.3673697664       -2.8431079089
 H       -16.3529951980       -0.9350220920       -1.6371102131
 H       -11.7270801204       -0.5807866389       -5.3905227710
 H       -12.0398529223       -0.4504395956       -3.5523451899
 H       -11.4467891787        2.1935047908       -4.1212929755
 H       -10.7511729614        1.5779743799       -5.4715363910
 H        -9.4244766421        1.0531715997       -0.7705076972
 H        -8.6254714480        2.2845548805        0.1216170511
 H        -6.3230356032        0.9717380541       -0.4296612569
 H        -7.5970328170       -0.1465987503       -1.2179299503
 H        -6.0423520478        1.7633542001        4.2095569732
 H        -7.4115966243        2.0452724183        3.0888136794
 H        -4.7397040191        3.3876440246        3.3332543629
 H        -6.2249622075        4.0270901305        4.1454960456
 H        -5.8462856611        8.6209537525        2.8411345090
 H        -6.3681892461        7.5871062370        4.0617039986
 H        -8.4970269367        8.9273270183        2.2055822365
 H        -7.9729201294        9.6801694195        3.8882800372
 H       -13.0308332182        7.3854446747        3.2814047146
 H       -11.7666332174        6.0969697037        2.8335308436
 H       -12.9458799770        8.0139699409        0.7786604653
 H       -13.7216612082        6.5054329004        1.0476821221
 H       -11.5906085653        8.7033048089       -2.8124294576
 H       -10.3658336151        9.3257987581       -1.8008885457
 H       -12.0269335761        8.8969993996       -1.0983074093
 H       -10.4522437979        4.5301205227       -1.4026236405
 H       -11.2726363686        4.8802767412       -2.8904986957
 H       -12.1303218283        4.0545802134       -1.5971268746
 H       -13.0876217053        6.7544403350       -2.9391998604
 H       -13.5928636460        7.5612186250       -1.3715251060
 H       -13.9515959161        5.8626809018       -1.8276954643
 H       -10.7334411608        7.3842046193        6.0478996420
 H       -11.5717080736        6.6030209602        4.7663990995
 H       -12.2670254084        8.0497953097        5.4196463654
 H       -11.8350485844       10.2095021539        4.2901916213
 H       -10.2494167684       10.4729834416        3.4862242815
 H       -10.3742967034       10.2506185768        5.0999698116
 H        -4.8023755870        5.9865816084        3.8980215133
 H        -4.0938238249        7.0625406881        2.6769120602
 H        -3.7659794876        5.2886800496        2.5850980216
 H        -6.1556661641        5.8919773391       -0.1102424498
 H        -4.5986243728        5.0779576990        0.2303757906
 H        -4.6252479609        6.8514409537        0.3984225453
 H        -6.4221559663       -1.4357194445        3.8800322344
 H        -8.1053488783       -1.5130620787        3.0202373112
 H        -7.4711742143        0.0416326192        3.8669658353
 H        -5.2921119556       -0.9355789482        0.2445969499
 H        -6.0400534302       -2.2238406903        1.1809263510
 H        -4.6768691259       -1.3286928919        1.8678137014
 H        -6.4635585261        1.7202836987       -3.2765711198
 H        -7.0623713204        1.1593334154       -4.8374161441
 H        -7.2944151799        0.1905688324       -3.4909823033
 H        -7.9777872469        3.8110730825       -4.3170580192
 H        -9.6743052132        3.6055692893       -4.1135343782
 H        -8.8712532887        2.7905438859       -5.4792801540
 H       -13.6457456606       -1.6770988427       -6.2491546982
 H       -14.9470179748       -2.5302574853       -5.2266529617
 H       -13.3256612689       -2.2123088616       -4.6157602169
 H       -15.6972942170        0.1093055201       -6.4221987486
 H       -15.8135271941        1.2116276836       -5.1703336988
 H       -16.6929683083       -0.4264327762       -4.9921097557
 Na       -8.7637421679        5.1875237323        0.0175635765
