117

 C       -16.2728091456       -0.4815335650       -2.4583578725
 C       -14.9128102091       -0.7688166571       -3.0920532863
 O       -14.0079119323       -1.2451157980       -2.4063779870
 C       -14.6086766214       -0.5192410994       -4.6274806196
 C       -13.4466409282        0.5715527984       -4.6840051069
 O       -13.6274324090        1.7305371055       -5.0318143829
 C       -12.0573056352        0.1876598077       -4.3741260604
 C       -10.9838949955        1.2660542326       -4.3894210803
 C        -9.7387027051        0.8686456961       -3.6313371475
 O        -9.6133749724       -0.2223644148       -3.0344040473
 C        -8.5826987172        1.8288980571       -3.4688646093
 C        -8.5114021680        2.3739119247       -1.9655569284
 O        -8.3761918744        3.5399675204       -1.7730808137
 C        -8.7371955439        1.3995311741       -0.8572305239
 C        -7.4809896714        0.6218370994       -0.4369096506
 C        -7.7183532125       -0.0240505651        0.9497979828
 O        -8.7952285148       -0.4424342755        1.2348325445
 C        -6.5138671459       -0.2712938741        1.9950153835
 C        -5.8995510535        1.1725611886        2.3058150456
 O        -4.8344176126        1.6009636509        1.8106798708
 C        -6.5320570220        2.0797668019        3.4181925772
 C        -5.8081051395        3.4454889542        3.3577606308
 C        -6.3865556778        4.3154513250        2.2776098832
 O        -7.2530157243        3.8476150731        1.5307419389
 C        -5.7823193811        5.7071589197        1.8839808703
 C        -6.9567645546        6.8087355069        2.0437416913
 O        -7.9700642226        6.7347103936        1.4239626025
 C        -6.7186528580        7.9750259398        3.1124421010
 C        -7.9171063631        8.8071728755        3.4802631544
 C        -9.0530866922        7.9750025776        4.1406798105
 O        -8.9180689457        6.8077168050        4.4017587440
 C       -10.6175656620        8.5454537484        4.0820965136
 C       -11.0928919665        8.1411943830        2.6573529448
 O       -10.6387884653        8.5760962876        1.6250622142
 C       -12.3235447118        7.1414980252        2.4571353039
 C       -12.7155969392        6.8924183489        0.9542255728
 C       -11.7080892484        6.0831606513        0.1479599003
 O       -10.8435354744        5.4138387074        0.7270458714
 C       -11.7692058736        6.1097304580       -1.4324314310
 C       -10.6945877933        7.2724036218       -1.6824570403
 O        -9.4744826570        7.0337826692       -1.6090406384
 C       -11.0335394445        8.7520247315       -1.9968368712
 C       -11.3694398756        4.7635998512       -2.0360151517
 C       -13.1989367829        6.4999219011       -1.9450833911
 C       -11.3445282006        7.9005340093        5.2848133925
 C       -10.4828040919       10.1064468489        4.2258590394
 C        -4.5147430746        6.1708154031        2.7014618812
 C        -5.4413795740        5.6066448622        0.3444661436
 C        -7.0952924241       -0.8322694100        3.2419223714
 C        -5.4192504030       -1.1978803318        1.4140047861
 C        -7.2484214592        1.1395006443       -3.9227098550
 C        -8.7235869728        3.1356275804       -4.3077613006
 C       -14.1296374837       -1.8310812079       -5.3070816395
 C       -15.7772203914        0.0107901710       -5.4394202213
 H       -17.0475291239       -1.1496117551       -2.7957726191
 H       -16.5596942627        0.5771340012       -2.6842748575
 H       -16.1712271762       -0.6373028391       -1.3891547534
 H       -11.8974248439       -0.5857351921       -5.1025858925
 H       -12.2078368615       -0.2254125874       -3.3566821139
 H       -11.4042891634        2.2168899378       -3.9924886526
 H       -10.7751530484        1.5925631837       -5.4095213191
 H        -9.4950028218        0.6167962583       -1.0673629176
 H        -9.1518741089        1.8885984596        0.0923213514
 H        -6.6552014235        1.2584531354       -0.3995135915
 H        -7.3500655300       -0.2205774401       -1.1365983982
 H        -6.2968217116        1.7730049289        4.4716177956
 H        -7.6039603312        2.2720566308        3.2372300805
 H        -4.8283415573        3.2043273024        2.9587651571
 H        -5.7080045233        4.0290610032        4.2743675664
 H        -5.9112351605        8.6603467391        2.7823949099
 H        -6.2081683940        7.5611340439        3.9854302651
 H        -8.2868219934        9.1967789512        2.5137484414
 H        -7.5555168151        9.4917180122        4.1993597991
 H       -13.1753187498        7.5916279384        2.8885522097
 H       -12.2080097298        6.1493441760        2.9198003295
 H       -12.8515723765        7.7971024200        0.3406809459
 H       -13.6800626256        6.3583906246        0.8944392693
 H       -11.5798445056        8.8590996489       -2.9838410733
 H       -10.0924779456        9.2831325849       -2.2060468642
 H       -11.5658919729        9.1158817563       -1.1327913118
 H       -10.3680894220        4.4192079736       -1.7154526509
 H       -11.3459057344        4.8865109557       -3.0947828420
 H       -12.0134181906        4.0036742326       -1.8318713659
 H       -13.1001022116        6.9618383487       -2.9141816625
 H       -13.7745806327        7.1016705324       -1.2720528603
 H       -13.7988545339        5.5918874916       -2.1731450205
 H       -11.1638811348        8.6347803548        6.0813753247
 H       -10.9978387067        6.8929001225        5.6166392803
 H       -12.4636565993        7.8307386909        5.0173421657
 H       -11.4848541487       10.5185689051        4.4525158425
 H       -10.2104785691       10.6184010790        3.2944165863
 H        -9.8606997035       10.5919770896        5.0250624992
 H        -4.6809142797        6.1263284104        3.7706789975
 H        -4.2686360464        7.1920434778        2.4764379159
 H        -3.7320719948        5.4079148823        2.5266661037
 H        -6.1954750931        5.0273376793       -0.1427998523
 H        -4.4886605974        5.0294147407        0.3855256924
 H        -5.2459736350        6.6436518703        0.0388107653
 H        -6.3682157279       -0.7406486325        4.0123036508
 H        -7.2124730066       -1.8512622785        3.0044047890
 H        -8.0208521742       -0.4413986531        3.5223414130
 H        -5.2682603986       -0.9025031582        0.3917038432
 H        -5.7725495148       -2.2465846662        1.4113262620
 H        -4.4946165623       -1.0577902514        2.0104657920
 H        -6.4063149351        1.8080816223       -3.7347108500
 H        -7.2898128721        0.8204571418       -4.9486486238
 H        -7.0954820287        0.2150329027       -3.3779018363
 H        -7.8730219763        3.7946557699       -4.1836636397
 H        -9.5652098332        3.7659629175       -4.0257335956
 H        -8.7922949253        2.9042536360       -5.3830101964
 H       -14.0181698117       -1.5867265696       -6.3710851687
 H       -14.9145560329       -2.5351675231       -5.1310239293
 H       -13.1957598812       -2.1738166290       -4.8188450256
 H       -15.4742991017        0.5252790553       -6.3236555318
 H       -16.2156597814        0.8022759057       -4.8605030124
 H       -16.5036098987       -0.7620915860       -5.6233329836
 Na       -8.6198855511        5.1611182898       -0.1244832939
