117

 C       -16.2449000179       -0.3689816134       -2.3997058550
 C       -14.9345514228       -0.7538781129       -3.0939136851
 O       -14.0032745933       -1.1182633249       -2.3889744341
 C       -14.6724879546       -0.5203641388       -4.6889257228
 C       -13.4526139002        0.5771673457       -4.6723576731
 O       -13.7129671215        1.7456281918       -4.8783994847
 C       -12.0024661820        0.0622073626       -4.2124656136
 C       -11.0494451834        1.2184026888       -4.3352429979
 C        -9.7520222117        0.8561528289       -3.6624788108
 O        -9.6854461698       -0.1999588213       -3.1455270627
 C        -8.4588118679        1.8382909072       -3.5062925702
 C        -8.4589361847        2.2451222395       -1.9975174814
 O        -8.2691442397        3.4455829615       -1.7340128055
 C        -8.7337047097        1.2690350519       -0.8218688203
 C        -7.4152359405        0.6260226073       -0.2921196610
 C        -7.7259831975       -0.0833206489        1.0196954533
 O        -8.7824070427       -0.5322447102        1.3287730831
 C        -6.4870791218       -0.2082539009        2.1079887406
 C        -5.8608961647        1.2514255466        2.3756478638
 O        -5.0397009428        1.7156030167        1.5989747039
 C        -6.5402238324        2.0491133188        3.4463005129
 C        -5.8655035869        3.4531563627        3.4801263331
 C        -6.4276286493        4.3210993189        2.2678101361
 O        -7.4317054772        3.9329151246        1.6402222170
 C        -5.8302204273        5.7287672748        1.8606007138
 C        -6.9679924924        6.7474427536        2.0710319243
 O        -7.9673998553        6.8121166996        1.3414169162
 C        -6.7249836013        7.8707104701        3.0838690784
 C        -7.9237175085        8.7224529847        3.4548801262
 C        -9.1234835974        7.8738382864        4.0149766522
 O        -8.8846680265        6.7612414053        4.4583354915
 C       -10.5549198247        8.5704978191        4.0881365086
 C       -11.1622547708        8.2231373128        2.5965368484
 O       -10.6434116649        8.7543717163        1.6383720377
 C       -12.3333645757        7.2136345403        2.4926275352
 C       -12.6994973240        6.8110623087        1.0439728951
 C       -11.5973121062        6.0151805044        0.1284369222
 O       -10.7757364636        5.3420324448        0.6442380631
 C       -11.7094402652        6.1697023018       -1.4884429023
 C       -10.5788644058        7.2453402580       -1.7675835436
 O        -9.4635372297        6.9190871299       -1.5903410725
 C       -10.9830343743        8.7036726355       -2.1507981871
 C       -11.3550870160        4.8466574827       -2.1330832326
 C       -13.1253543171        6.5262860706       -2.0062928724
 C       -11.3233246725        8.1391496108        5.3115673697
 C       -10.4359803224       10.1234477854        4.1456231296
 C        -4.5244412582        5.9887896597        2.6058028770
 C        -5.5193253076        5.6770139864        0.3489894463
 C        -7.1054545665       -0.8541992462        3.3337606740
 C        -5.3684691213       -1.0322603771        1.3783276091
 C        -7.1751556982        1.1638113709       -3.8795388053
 C        -8.6656465881        3.1223203731       -4.3688269982
 C       -14.1818648799       -1.8769880593       -5.3062425619
 C       -15.9131725462       -0.0130091183       -5.4541592047
 H       -17.0932366329       -0.9867216676       -2.7922812094
 H       -16.4815605696        0.6532391250       -2.6040378769
 H       -16.1196726316       -0.5758899414       -1.4002431926
 H       -11.7833521336       -0.7397198513       -4.8697017272
 H       -12.1481483178       -0.2541089894       -3.2232371734
 H       -11.5668206736        2.1141053048       -3.9042403695
 H       -10.9881841390        1.5316394033       -5.3646798304
 H        -9.4099981216        0.4425361196       -1.0683031968
 H        -9.2599559653        1.7380326306        0.0258365364
 H        -6.7401541271        1.3945074356       -0.0550051748
 H        -7.0065799385       -0.1359454824       -0.9824884019
 H        -6.3869960734        1.6508695150        4.4508228654
 H        -7.6189849492        2.2164531077        3.1919859502
 H        -4.7449193656        3.3665354700        3.3946906080
 H        -6.1566799159        4.0260833685        4.3169096701
 H        -5.8635094873        8.4415284417        2.7859610265
 H        -6.2988640591        7.4245231343        3.9855210512
 H        -8.1859094267        9.3038354351        2.5825564447
 H        -7.5843794139        9.2136077431        4.3301705881
 H       -13.2415823261        7.7142723281        2.8847300559
 H       -12.1875664581        6.3608881678        3.1007638928
 H       -12.9315969183        7.7369604357        0.4125846786
 H       -13.6326368484        6.2387147762        1.0678323301
 H       -11.6276653499        8.8375122561       -3.0180428920
 H       -10.0254510663        9.1935222180       -2.4984868953
 H       -11.3192175387        9.1019985146       -1.2437487454
 H       -10.2999650965        4.5646324465       -1.9354829648
 H       -11.4637637669        4.9958333025       -3.2222690615
 H       -11.9831766818        3.9259088045       -1.8454457857
 H       -12.9951756520        6.6613654734       -3.0498661208
 H       -13.6178664520        7.4319169083       -1.5409539169
 H       -13.8276650955        5.7065084539       -1.8938553458
 H       -11.3421464166        8.9230109645        6.0879913545
 H       -11.0000571153        7.1932235114        5.7313946965
 H       -12.3334023598        7.9731587783        4.8674352397
 H       -11.4325771125       10.5294590148        4.3347564814
 H       -10.1366003219       10.6657033677        3.1827579750
 H        -9.8723991459       10.5657077152        4.9226866522
 H        -4.5746696109        6.0976906132        3.6717964831
 H        -4.1820782106        6.9080523857        2.2345558758
 H        -3.8585369082        5.0817111072        2.4472335308
 H        -6.3216739167        5.0776444224       -0.1144992413
 H        -4.6148165158        5.1287738301        0.3375560930
 H        -5.3805838543        6.6774603955        0.0185171017
 H        -6.5392065491       -0.6383295168        4.1802413863
 H        -7.0726548821       -1.8720219644        3.1526385555
 H        -8.1295860743       -0.6422762077        3.4274331599
 H        -5.0411359377       -0.5512446491        0.4777868219
 H        -5.7691875066       -2.0839759291        1.1195305688
 H        -4.5499021086       -1.0809082180        2.1083291698
 H        -6.3290774734        1.8900415081       -3.9155467520
 H        -7.3165830141        0.6786938715       -4.8651238031
 H        -6.9042413288        0.3517312304       -3.2097717267
 H        -7.9257127165        3.9557273484       -4.3150431387
 H        -9.5851983118        3.6040314445       -4.1285690084
 H        -8.7176764396        2.8394315308       -5.3916406909
 H       -13.7952376593       -1.6387045364       -6.2827897794
 H       -15.0607030992       -2.5788722662       -5.3896891893
 H       -13.4503276811       -2.2538628517       -4.5977883196
 H       -15.6493671052        0.6184706884       -6.2863122782
 H       -16.4580933001        0.6207293975       -4.7733676364
 H       -16.5417665326       -0.7954532795       -5.7587523057
 Na       -8.5681965170        5.1281041382       -0.1448624077
