117

 C       -16.3015356721       -0.1634264428       -2.4569506923
 C       -14.9521550753       -0.7189017099       -3.0622273896
 O       -14.0398972237       -1.0582193199       -2.3125047946
 C       -14.6763497195       -0.5222970107       -4.5951241335
 C       -13.5902618710        0.6464828040       -4.5640245851
 O       -13.9340480554        1.8184026028       -4.6570274976
 C       -12.1644790829        0.0981482570       -4.2664360649
 C       -11.0127934760        1.1684189111       -4.2659288556
 C        -9.6824840511        0.7692465736       -3.7053613763
 O        -9.5114606015       -0.4301948092       -3.3753522241
 C        -8.5683055276        1.7644066879       -3.4478048734
 C        -8.4037869473        2.2019506481       -1.9521924175
 O        -8.0317398814        3.3231907789       -1.7538946989
 C        -8.6785743082        1.1220323857       -0.9179523915
 C        -7.3944730521        0.7064712877       -0.1920810349
 C        -7.6851035866       -0.0500903678        1.1499108075
 O        -8.7295901498       -0.5856402338        1.3979538101
 C        -6.4084643015       -0.1497344643        2.1848768802
 C        -5.9891365693        1.3433243176        2.3700911146
 O        -5.5120917708        1.9944784691        1.4364809390
 C        -6.4879824186        2.0876976172        3.6550299901
 C        -6.3548132256        3.6640675568        3.5794695300
 C        -6.7660542112        4.3138470551        2.2682826042
 O        -7.7792150240        4.0146168768        1.7248789842
 C        -5.8856558392        5.6561051725        1.7412669989
 C        -6.8250660173        6.7994763311        2.0391536730
 O        -7.8023874128        6.8850579183        1.3286104819
 C        -6.7124429114        7.6710718461        3.2461941199
 C        -7.9542356516        8.5721169202        3.2820558811
 C        -9.1205637908        7.9162713476        4.0005650353
 O        -9.1236071853        6.8101655578        4.4915432143
 C       -10.4596669409        8.7114972598        3.9631546257
 C       -11.0585143117        8.3338099109        2.4955511748
 O       -10.8966949761        9.0036547240        1.4990333113
 C       -12.0202671492        7.0428653840        2.4323504502
 C       -12.6047887754        6.7812159853        0.9761487800
 C       -11.6027048469        6.0567323474        0.1512266382
 O       -10.7620683253        5.2888806405        0.6769190874
 C       -11.6406550200        6.2086880562       -1.4095272736
 C       -10.4354194825        7.1874696481       -1.8219469453
 O        -9.2432320358        6.8372681784       -1.6218212487
 C       -10.6690131531        8.4957641758       -2.4799872911
 C       -11.3235586125        4.8671543890       -2.1196737664
 C       -13.0039778121        6.8120904467       -1.8073710332
 C       -11.4310396829        8.1913487145        5.1211835433
 C       -10.2288042078       10.2523283983        3.9118016271
 C        -4.5620972633        5.7571607462        2.4687985394
 C        -5.5686353821        5.6075041385        0.1810136737
 C        -6.7157297304       -0.8305990763        3.4948402045
 C        -5.3068970360       -0.9605442501        1.5187045953
 C        -7.2257848086        1.0157570950       -3.7930737692
 C        -8.6672376644        2.9555574250       -4.3879543979
 C       -14.2450633649       -1.9635724005       -5.1489297745
 C       -15.9181084363        0.0321691169       -5.3530848339
 H       -17.1319060444       -0.4364293609       -3.0554507925
 H       -16.3000446471        0.9377959890       -2.6413310160
 H       -16.3877581905       -0.4849182995       -1.3858945711
 H       -12.0376358888       -0.6922702184       -5.0412172485
 H       -12.3021602725       -0.4012967787       -3.2485299207
 H       -11.3547279041        2.0098448570       -3.6767410419
 H       -10.9087648153        1.5673668539       -5.3024428721
 H        -9.1635236624        0.2703705707       -1.3623491449
 H        -9.4477032904        1.4392902871       -0.2401906310
 H        -6.9010259770        1.7055489177       -0.0943158378
 H        -6.8461840862       -0.0314215181       -0.7971375227
 H        -5.8776513667        1.9089017184        4.5277411370
 H        -7.4982646946        1.8702378753        3.8959727550
 H        -5.3414084651        3.9349007340        3.6561758623
 H        -6.9832084932        4.1853456769        4.3745876202
 H        -5.7359255414        8.1856180552        3.2721807187
 H        -6.5955205549        7.0570949362        4.1358978074
 H        -8.2668353613        8.7032777846        2.2307930890
 H        -7.6695326287        9.4214254708        3.9401984642
 H       -12.9114962799        7.1429567223        3.0729188761
 H       -11.4698119659        6.1237653991        2.8447486186
 H       -12.8771512012        7.6765970402        0.4920620492
 H       -13.4893534330        6.1150463938        0.9892229146
 H       -11.2371633552        8.3456583282       -3.3831570814
 H        -9.7675792283        8.8619359293       -2.8727679146
 H       -11.0739157989        9.2050662167       -1.7323884554
 H       -10.2841916544        4.5137629479       -1.8947843797
 H       -11.4556390688        4.9369012530       -3.2201949189
 H       -11.9270519866        4.0931343071       -1.7865649945
 H       -13.2334680816        6.6796855452       -2.8991281800
 H       -12.9839405862        7.8575472908       -1.6391241452
 H       -13.8246482399        6.4699823437       -1.1585164249
 H       -10.9876103733        8.4964111073        6.0420330861
 H       -11.3556768556        7.1096256433        5.0634617090
 H       -12.4617279639        8.4578883357        5.1176741307
 H       -11.0626366521       10.9029102084        3.7806246628
 H        -9.6660504465       10.5555718061        3.1012477942
 H        -9.6928773681       10.6040515333        4.8136148698
 H        -4.6588386937        5.8050308855        3.5604284145
 H        -4.1088678172        6.7228626652        2.1711179514
 H        -3.9863235063        4.8959697021        2.3041799240
 H        -6.4171036878        5.5136219296       -0.4257806022
 H        -4.7742390558        4.8694286857        0.0423132106
 H        -5.1326196624        6.6035015276        0.1249769548
 H        -5.7449603800       -0.7876677101        4.0962022426
 H        -6.9998927583       -1.9141856174        3.2902953864
 H        -7.6432047046       -0.4348968833        3.9966214794
 H        -4.6413236094       -0.2835966816        0.9412500548
 H        -5.7676910076       -1.6373156419        0.8711399850
 H        -4.7446867119       -1.4831151936        2.2769594267
 H        -6.3499426433        1.6431738537       -3.6621929437
 H        -7.2791956081        0.7024904058       -4.8342069656
 H        -7.0749581818        0.1160092536       -3.1603474126
 H        -7.9168772674        3.6663748429       -4.1721555711
 H        -9.5848428956        3.5709265720       -4.4318739688
 H        -8.4408374678        2.6251298892       -5.4254061043
 H       -13.6750498624       -1.8100459148       -6.0771671152
 H       -15.1157363330       -2.4714794517       -5.4378067983
 H       -13.7562644503       -2.4573229497       -4.3088893732
 H       -15.6192324426        0.1728229964       -6.4115897548
 H       -16.1977036103        0.9868930551       -4.8614878283
 H       -16.8473569332       -0.6202589169       -5.3353901012
 Na       -8.5749068619        5.0032894651       -0.1138230590
