117

 C       -16.3239806976       -0.1157484316       -2.3807323082
 C       -14.9990478952       -0.5996319186       -2.9876871166
 O       -14.2103302840       -1.1348343059       -2.2153302938
 C       -14.6840646561       -0.4955627099       -4.5460729030
 C       -13.5408081298        0.6064186784       -4.5449121621
 O       -13.8800698462        1.7945162661       -4.5860247290
 C       -12.1208579174        0.1667666817       -4.3563764103
 C       -11.1042051731        1.2376770000       -4.2443382001
 C        -9.7498354599        0.5940185847       -3.6910624605
 O        -9.5149312101       -0.5673879354       -3.5489427127
 C        -8.4815750668        1.6970138800       -3.5216944934
 C        -8.4349694953        2.1524144942       -1.9887685514
 O        -8.0455226522        3.2475317773       -1.7160524920
 C        -8.7255782092        1.1079135755       -0.8793355133
 C        -7.4252217891        0.6710716140       -0.1811640198
 C        -7.6420981464       -0.0489458070        1.1497022058
 O        -8.6713487788       -0.5417040997        1.4578815732
 C        -6.3549629576       -0.0269836426        2.1959942534
 C        -6.0658302175        1.4660268973        2.4337836760
 O        -5.5891179079        2.2690433938        1.6011901617
 C        -6.5044880471        2.1116021015        3.6973246157
 C        -6.4137815012        3.6164621616        3.6617906387
 C        -6.7308527526        4.2600511254        2.2091039589
 O        -7.8428608950        4.0631321202        1.6607545589
 C        -5.8826579477        5.4882509996        1.7424885563
 C        -6.9352679947        6.7014048910        1.9801977170
 O        -7.8344831457        6.9274532734        1.1848756293
 C        -6.7415146584        7.5573206490        3.2605319850
 C        -7.8783249365        8.6100692579        3.3541067254
 C        -9.1822785564        7.9539569707        3.9313218519
 O        -9.1219334813        6.8609940172        4.4795739311
 C       -10.4880733310        8.7115677379        3.7810142881
 C       -11.1904261969        8.3676082713        2.4695694410
 O       -11.0143620535        8.9965437456        1.4705318284
 C       -11.8267157511        7.0035752555        2.4342905821
 C       -12.5126406443        6.8263066381        1.0587873880
 C       -11.4944297930        6.0266231536        0.1726313342
 O       -10.7310623067        5.2721180879        0.7084350352
 C       -11.5543356662        6.2600289749       -1.4021585676
 C       -10.2958144131        7.1356036008       -1.8782810658
 O        -9.2091465767        6.7781709653       -1.5525963328
 C       -10.4873455401        8.5292541674       -2.6735428397
 C       -11.4573031502        4.8558043762       -2.0665441120
 C       -12.8995095337        6.8647122880       -1.7949292458
 C       -11.4236374709        8.3488629463        4.8960681810
 C       -10.2866800016       10.2555176682        3.9481492842
 C        -4.4883248667        5.7027799180        2.4653979900
 C        -5.5966974589        5.3838925404        0.2249843852
 C        -6.7088372345       -0.7412113346        3.5242561643
 C        -5.1803691598       -0.9137302621        1.4647144758
 C        -7.2001571362        0.8731173627       -3.7853219799
 C        -8.6651769087        2.9322339156       -4.3710171811
 C       -14.2461129958       -1.8158603827       -5.0640669554
 C       -15.9036472801       -0.0071798027       -5.3671026759
 H       -17.1572416151       -0.4259500645       -3.0612246017
 H       -16.4061187057        1.0084393993       -2.5193825904
 H       -16.3693157662       -0.4863198219       -1.3844474169
 H       -11.8791429741       -0.5212713527       -5.1859498297
 H       -12.1320331118       -0.4376762906       -3.3776735174
 H       -11.4635911973        2.1128532331       -3.6403008379
 H       -10.8834178333        1.5845481839       -5.2585627690
 H        -9.3125670885        0.2531958434       -1.2351162969
 H        -9.4926386772        1.6204485471       -0.2215614777
 H        -6.9537838947        1.5472189951       -0.0762292557
 H        -6.8871281872       -0.0294285560       -0.8818111205
 H        -5.9796126388        1.8243345864        4.6292431579
 H        -7.5642884097        1.9478185928        3.8974210909
 H        -5.4328516652        4.0111391610        3.8963188758
 H        -7.1728660267        3.9846107334        4.3441588599
 H        -5.7152185382        7.9951279493        3.3046019687
 H        -6.6944040161        6.9190522942        4.1633171267
 H        -8.0925473482        8.9359150805        2.2920891234
 H        -7.5106274894        9.3035686089        4.0767277081
 H       -12.6207730794        6.8826305063        3.1493231934
 H       -11.0631707825        6.2451504633        2.7218130507
 H       -12.6886209368        7.8229622695        0.6641578202
 H       -13.4457537316        6.3022195575        1.0964288920
 H       -10.9261436460        8.3462944013       -3.6873888536
 H        -9.4912420712        9.0051550649       -2.9362337693
 H       -11.0159347690        9.1891444740       -2.0586742945
 H       -10.6080902149        4.2943767167       -1.7438092613
 H       -11.5054646833        4.8688008008       -3.0819359203
 H       -12.2918543338        4.3099766992       -1.7260036070
 H       -13.0368053914        6.9886508408       -2.8435795715
 H       -13.0641013235        7.8637126393       -1.3551637767
 H       -13.6619439870        6.2309133673       -1.3218073819
 H       -10.7439764136        8.5188753353        5.7298823645
 H       -11.7460300375        7.3221494951        4.9076310180
 H       -12.3288313299        8.9938003831        5.1086148227
 H       -11.1383928547       10.9006410832        3.8995666061
 H        -9.7358297821       10.6704978247        3.0693753394
 H        -9.7087497683       10.5031992701        4.8208861702
 H        -4.5684928382        5.7988485087        3.5294379999
 H        -4.0259301127        6.5792056338        2.0789767576
 H        -3.8570537181        4.7522551608        2.3538507041
 H        -6.5504828640        5.5205974323       -0.3584555220
 H        -5.0536362693        4.4335191677        0.0644249298
 H        -4.9482730606        6.2481027027        0.0764715346
 H        -5.7043134960       -0.9288032255        4.0310253470
 H        -7.1474129607       -1.7239648160        3.2276840304
 H        -7.5044441808       -0.2891189101        4.1655728546
 H        -4.7373012642       -0.2331855007        0.8410182902
 H        -5.6850839469       -1.6949503699        0.8391272871
 H        -4.4667181297       -1.3550674870        2.1491517104
 H        -6.3304194165        1.4105545627       -3.4003606916
 H        -7.0344049038        0.7163789506       -4.8344458016
 H        -7.2254996140       -0.0421450488       -3.2436146469
 H        -7.9725713697        3.7830831313       -4.1815983267
 H        -9.6384442707        3.3614131300       -4.1210844863
 H        -8.6632113879        2.7970357774       -5.4546939129
 H       -13.8663508889       -1.6275121389       -6.0442023849
 H       -15.0800903005       -2.4719360401       -5.2104358890
 H       -13.5600756286       -2.1886928962       -4.3154999921
 H       -15.7578359323       -0.2936525178       -6.4309144364
 H       -15.9329703311        1.0872940185       -5.1930400258
 H       -16.9100222917       -0.3634084007       -5.0472256503
 Na       -8.6514903925        5.0148601170       -0.1384803640
