117

 C       -16.3982809857        0.0552179882       -2.3727853555
 C       -15.1425373139       -0.6081673388       -2.9195475413
 O       -14.4272650968       -1.2180754365       -2.1415460155
 C       -14.7113350804       -0.4177376350       -4.4032533787
 C       -13.5601518546        0.6380137234       -4.4458875582
 O       -13.6827138289        1.8474799519       -4.4840475295
 C       -12.1431905527        0.1014030173       -4.4143322034
 C       -11.1430785067        1.2361810357       -4.1189207793
 C        -9.7482207173        0.5764166052       -3.7713407314
 O        -9.5537476883       -0.6553199099       -3.8059751335
 C        -8.5431751421        1.5408106228       -3.4672506380
 C        -8.5614753813        1.9746402584       -1.9711128362
 O        -8.3497324364        3.2058143562       -1.8014633711
 C        -8.7775640120        1.0325627539       -0.7711753770
 C        -7.3738030895        0.5691952267       -0.2067702906
 C        -7.5692448320        0.0557064517        1.2228175297
 O        -8.6196249879       -0.4273905903        1.5824117704
 C        -6.3157302367        0.1504828713        2.1816976146
 C        -6.1225583029        1.6475585937        2.5145441230
 O        -5.4749918868        2.2783784548        1.7160865615
 C        -6.7858123230        2.2476590935        3.7064896565
 C        -6.5245020370        3.7805049684        3.8511098140
 C        -6.8724107800        4.2384151521        2.4050246175
 O        -7.7502213428        3.7439894541        1.7782215910
 C        -5.9609576143        5.3770415881        1.7763950425
 C        -6.8507422055        6.6677061200        1.8162365178
 O        -7.7670681394        6.7929873314        1.0368740368
 C        -6.7265568044        7.5155831271        3.1379344866
 C        -7.7821814473        8.5890103535        3.4486184757
 C        -9.1078215189        8.0217815414        3.9843422217
 O        -9.2529393176        6.8912605302        4.3621098869
 C       -10.4901607142        8.9717185791        3.8106370128
 C       -11.1693970453        8.4520757091        2.5209681450
 O       -11.1400178837        9.1534415317        1.5239707007
 C       -11.8835771630        7.0867523825        2.4433236140
 C       -12.5063023645        6.6483176045        1.1063636356
 C       -11.5485616176        5.9890922719        0.0395412392
 O       -10.6599257614        5.2605261041        0.5436804475
 C       -11.5263541817        6.3066688667       -1.4769026165
 C       -10.1653769030        7.0468940785       -1.9361644807
 O        -9.0664494545        6.6170136484       -1.5566257918
 C       -10.3294916183        8.2411233570       -2.8638494713
 C       -11.5169596567        4.9208870000       -2.1146528563
 C       -12.7128124770        7.1467974229       -1.9342477164
 C       -11.3526792440        8.5957183666        5.0432206843
 C       -10.2541652869       10.4302492187        3.7125592289
 C        -4.5840401028        5.5870495391        2.4887003548
 C        -5.6284117582        4.9474528972        0.2417970748
 C        -6.6697112597       -0.7943999165        3.4074749684
 C        -5.0798859890       -0.2782281858        1.4535656787
 C        -7.1629682578        0.7480186954       -3.8041945543
 C        -8.5117681678        2.8084058985       -4.3598273093
 C       -14.2160350233       -1.8501697788       -4.8606711375
 C       -15.8787757363        0.1269933972       -5.2699429675
 H       -17.2734106817       -0.4250633572       -2.6811348046
 H       -16.5422025820        1.0503420716       -2.6717844263
 H       -16.1746555636       -0.0951933278       -1.3006109315
 H       -11.8987429788       -0.3701286134       -5.3620201215
 H       -12.0150585792       -0.6501586752       -3.7012506223
 H       -11.4016126090        1.8419208321       -3.2479377133
 H       -10.9813409353        1.8494149443       -5.0316059701
 H        -9.4067324855        0.1646924847       -1.0488675070
 H        -9.4033847415        1.6104497415       -0.1159290402
 H        -6.7402882458        1.5675999333       -0.2781011947
 H        -6.9775341988       -0.1701625945       -0.8697097157
 H        -6.5690041202        1.6964086973        4.6413543890
 H        -7.9050958489        2.1578674095        3.6185188643
 H        -5.5211294873        4.0975040543        4.0727606781
 H        -7.2209394018        4.3180979312        4.5177104917
 H        -5.7412166298        7.9527258397        3.2454470121
 H        -6.6892401237        6.7793125813        3.9481361052
 H        -8.0755327167        9.0272837116        2.5245177316
 H        -7.2726129590        9.2908244204        4.1629776014
 H       -12.6274600177        6.9555454440        3.2308967381
 H       -11.1555870085        6.3312592821        2.6806278239
 H       -12.9465810683        7.5401210742        0.6370063821
 H       -13.3288002168        5.8902435230        1.2716764914
 H       -10.6353502411        7.8252019643       -3.8216604603
 H        -9.4916630242        8.8771086916       -3.0161833650
 H       -11.1282942062        8.9019157407       -2.3707851836
 H       -10.6354563266        4.3040460615       -1.7679268938
 H       -11.4907865848        4.9677517494       -3.2547198716
 H       -12.4231753094        4.3810499054       -1.8645637180
 H       -12.6823801028        7.3879118142       -3.0195694229
 H       -12.7212402802        8.1124217546       -1.4931240209
 H       -13.6241116727        6.6496973614       -1.6507738812
 H       -11.1628800128        9.1052647910        6.0169205722
 H       -11.2070112499        7.4733557603        5.1027629915
 H       -12.4097825962        8.6977636954        4.8511890787
 H       -11.1102807269       11.1310181339        3.7561859792
 H        -9.7842017919       10.7406337178        2.8083389222
 H        -9.5836641261       10.7257386062        4.5648300195
 H        -4.7103464902        5.8360577079        3.5667360695
 H        -3.9518116735        6.3765789285        1.9754837253
 H        -4.0316625445        4.6964997460        2.4460042053
 H        -6.4517685225        5.2485256888       -0.3279227102
 H        -5.5881669066        3.8801838395        0.3829210131
 H        -4.6839182413        5.3828726305       -0.1310305596
 H        -6.0269538675       -0.7526073323        4.2154991347
 H        -6.7941882624       -1.7984317307        3.1350483060
 H        -7.6061557593       -0.4241684159        3.6587706525
 H        -5.0619199259        0.3161902604        0.4640658513
 H        -5.0770467808       -1.3312961499        1.3358179938
 H        -4.2154349099        0.0547413343        2.0553862809
 H        -6.3327789375        1.2496490260       -3.3453479577
 H        -6.9561817772        0.8106993280       -4.8667239093
 H        -7.1441546931       -0.2719227537       -3.3918411806
 H        -7.5433427727        3.2261663905       -4.2504435427
 H        -9.2095552187        3.6261477562       -4.1387976984
 H        -8.6322477871        2.6794302838       -5.4401983246
 H       -13.9561366680       -1.8437688609       -5.9274730132
 H       -15.0764694899       -2.5023600954       -4.7728087550
 H       -13.4546265391       -2.1173889702       -4.1366599473
 H       -15.7407348113       -0.2071882497       -6.2574069157
 H       -16.0164539569        1.1707130872       -5.1862782089
 H       -16.7981415885       -0.3083643029       -4.9559848938
 Na       -8.6034039023        4.8785434634       -0.2444906517
