117

 C       -10.8889685586       10.4514251226       -2.9492181489
 C       -10.1444366339        9.3282499529       -3.6429464396
 O       -10.1337776611        8.2422741760       -3.0680819610
 C        -9.4036059884        9.4785803372       -4.9755749097
 C        -8.1349273801       10.4147385745       -4.6193278690
 O        -7.8856472043       11.4696853427       -5.1830814414
 C        -7.1044096863       10.0540236857       -3.4990913255
 C        -7.5154764563       10.2606539488       -2.0055984117
 C        -6.3204695620        9.8743415057       -1.0750728872
 O        -5.1831646230        9.7971789829       -1.4986807928
 C        -6.6387559129        9.4502861617        0.4583060381
 C        -8.0563897470        8.6318220567        0.5564579770
 O        -9.0818565728        9.2082548136        0.6986386391
 C        -8.1123899048        7.0668976102        0.4058523895
 C        -9.3602627588        6.5586391281       -0.3112878124
 C        -9.4195310689        5.0721497994       -0.4654138797
 O        -8.7629793273        4.2091901922        0.1059325611
 C       -10.3395256746        4.5056023831       -1.6734001674
 C       -11.4032125174        3.4872557671       -1.0393101550
 O       -11.1272953063        2.2958107992       -1.0328290791
 C       -12.8026422823        3.9943718374       -0.6640555797
 C       -13.5014207565        3.1590786048        0.4789119263
 C       -12.5032177894        2.8984043165        1.7295623135
 O       -11.3704542490        3.2729857416        1.7001077539
 C       -13.0180786274        2.0220285811        3.0984716618
 C       -12.0121468286        0.6529460769        3.1350607169
 O       -11.1125336489        0.4418568690        2.4142391990
 C       -12.1948983444       -0.2180659085        4.4069157702
 C       -11.7402035513       -1.6849200022        3.9796024508
 C       -12.5986155856       -2.1947889831        2.8772315228
 O       -13.6162674438       -1.6167053369        2.5836964071
 C       -12.0550169661       -3.3422503056        1.9350564777
 C       -10.5468705766       -3.0085965947        1.3631938175
 O        -9.6263050971       -2.9201026732        2.1370767379
 C       -10.3175446470       -2.8319053020       -0.2177748271
 C        -8.8883446323       -2.4354238072       -0.4925980372
 C        -8.6389368362       -0.9537504242       -0.1533915667
 O        -9.5776447967       -0.2356046527       -0.2151031126
 C        -7.3017160384       -0.3489842081        0.1668528783
 C        -7.2989372435        0.1239641949        1.6894473762
 O        -8.0371133948        1.0053158852        2.0460277892
 C        -6.2928360483       -0.7359416281        2.6722469075
 C        -6.1209630013       -1.2268441691       -0.1348130695
 C        -7.3474133460        0.9660418015       -0.8031086319
 C       -11.9473209494       -4.6588760858        2.8008850347
 C       -13.0139486062       -3.5699747863        0.7397629233
 C       -12.5076855282        2.9786982443        4.3231976459
 C       -14.4875921780        1.7564856288        3.1691748357
 C       -11.1273993762        5.6862890755       -2.2685148234
 C        -9.3822281793        3.8272830129       -2.6420229202
 C        -5.4615154492        8.5044943136        0.9277598642
 C        -6.7961143090       10.7531086189        1.2130333464
 C        -8.9817432049        8.0363371869       -5.4055629424
 C       -10.1331776265       10.2569294828       -6.1059786335
 H       -10.2805314178       10.7556816153       -2.1074688533
 H       -11.9063983402       10.0236234504       -2.7002824682
 H       -11.1245853218       11.3693506792       -3.6689242446
 H        -6.2080478663       10.4552410780       -3.7725574530
 H        -6.8590674188        8.9222453109       -3.6075955182
 H        -8.4129023502        9.6061938382       -1.7842873976
 H        -7.7326264580       11.3435635075       -1.8301661733
 H        -7.9918757321        6.5889415498        1.4451384184
 H        -7.2294598161        6.6987521659       -0.1720909001
 H        -9.3565027092        7.0271512594       -1.3440364194
 H       -10.3076259859        6.8838979302        0.2239236681
 H       -13.4071192506        3.8771923577       -1.5290087622
 H       -12.6409507378        5.0600479068       -0.5097122046
 H       -13.8812063692        2.2163580052        0.1100247472
 H       -14.4257667474        3.7083379492        0.7782553805
 H       -13.2226032144       -0.2975493681        4.8950263331
 H       -11.6357082242        0.2247720290        5.2852320198
 H       -11.8326779588       -2.3386114095        4.8588099005
 H       -10.7989680966       -1.5185056365        3.5287674597
 H       -11.0391858697       -2.0992173915       -0.5895710354
 H       -10.5716154727       -3.7712908091       -0.7374297599
 H        -8.5923684933       -2.6681223127       -1.4894627429
 H        -8.1954749972       -3.0043750637        0.0755764225
 H        -6.2117516552       -1.7831370732        2.5048178574
 H        -6.4120654761       -0.6358378161        3.8147528044
 H        -5.2548144222       -0.4492994114        2.6071281508
 H        -6.1935406845       -1.5806137958       -1.1532888385
 H        -5.9936775185       -2.0526735259        0.5752114559
 H        -5.2120733810       -0.6265494053       -0.1571653587
 H        -8.4562226155        1.1829160048       -0.9567164430
 H        -6.8642319031        0.7676951088       -1.7532230564
 H        -6.9387324207        1.9216756370       -0.3688967020
 H       -12.7198968911       -4.6892639547        3.5352275224
 H       -11.0450777433       -4.5804849510        3.3354162413
 H       -12.0102216733       -5.6468980850        2.2641002483
 H       -13.9687709644       -2.9115176828        0.8165471994
 H       -13.3747551349       -4.5922622327        0.4870951361
 H       -12.5580740426       -3.0701691546       -0.1402392119
 H       -12.9471004200        3.9726263957        4.4097534599
 H       -11.3917296158        3.0254922851        4.2466045813
 H       -12.7008448634        2.4484283637        5.2922680953
 H       -15.2029496364        2.5015465664        3.2063968334
 H       -14.5595200019        1.2768276043        4.1292239203
 H       -14.8157778271        1.0322674023        2.4218438032
 H       -11.8305902636        5.2957541583       -2.9195565477
 H       -10.3496399792        6.4010204596       -2.7470242422
 H       -11.5761456162        6.2921754454       -1.4842580327
 H        -9.2400635010        2.7518833870       -2.6575008526
 H        -8.4125719646        4.3389435615       -2.5573858307
 H        -9.6182055007        4.0715566884       -3.7136536763
 H        -4.5947257754        9.1500084232        0.8563066811
 H        -5.1984667235        7.6457940231        0.3508489099
 H        -5.4660390723        8.2764866618        1.9800908673
 H        -7.4029533298       11.4082000278        0.5765573005
 H        -5.8105481328       11.1851126118        1.3783359579
 H        -7.3587659181       10.4908739717        2.1133717046
 H        -8.4665310450        7.4509865427       -4.6417364335
 H        -8.1655389817        8.0606584496       -6.2420058159
 H        -9.7742183070        7.5152105829       -5.8691096092
 H       -11.1970508329        9.9471457808       -6.1551605857
 H        -9.6778695341       10.0940334111       -7.1263108517
 H       -10.0911785867       11.3494427051       -5.8186046872
 Na       -9.8644562172        1.9247106433        0.7405086537
