117

 C       -16.3810904318        0.5134462236       -2.2381871461
 C       -15.2481060504       -0.3726961186       -2.8062921397
 O       -14.6896543787       -1.1604252344       -2.0186824624
 C       -14.8353419809       -0.3081238091       -4.3101625456
 C       -13.5845387883        0.5727343062       -4.2446738669
 O       -13.7587613609        1.7889782299       -4.0722076905
 C       -12.2113292304       -0.0775158229       -4.0828873396
 C       -11.1264916328        0.9708156583       -3.8860932253
 C        -9.6555809879        0.3123226252       -3.9107880516
 O        -9.5268436159       -0.8739797048       -4.0872609555
 C        -8.3657153518        1.2629820065       -3.5529912608
 C        -8.6484742845        1.8872046884       -2.0879605770
 O        -9.0136271693        3.0399495177       -1.9172616944
 C        -8.5727700412        0.8911352970       -0.8320567324
 C        -7.2043369644        0.8650967990       -0.0669353367
 C        -7.4041144995        0.2838687030        1.3160187433
 O        -8.4895710654        0.0302495046        1.7578299672
 C        -6.1539144721        0.1636670114        2.2219049179
 C        -5.9364549830        1.6349075300        2.8973336713
 O        -5.1253436977        2.3753804693        2.3918935112
 C        -7.0909707239        2.0815679916        3.7841777649
 C        -7.0226919115        3.6128396673        3.9370707858
 C        -7.1013817481        4.1775063306        2.5364233086
 O        -8.0011640206        3.8591031884        1.8439428627
 C        -6.0720106183        5.1926388365        1.9863159013
 C        -6.9558948236        6.4803302959        1.8990723103
 O        -7.7630047619        6.6673226228        1.0200893178
 C        -6.7273844183        7.6414912556        2.9072094753
 C        -7.8160716456        8.6429412601        2.8345199732
 C        -9.1138838542        8.0924116225        3.5313092724
 O        -9.1571233974        7.0019408098        4.0462934264
 C       -10.3838040058        9.0647039545        3.5916422318
 C       -11.1410925662        8.5213884129        2.3337384882
 O       -11.3767090662        9.3475489267        1.4950808988
 C       -11.7984801826        7.2142397513        2.3159390554
 C       -12.3857669754        6.8504978451        0.9655942811
 C       -11.4541974038        6.1863920144       -0.0042447862
 O       -10.6638770387        5.4399613433        0.5384834819
 C       -11.4722535301        6.3589727529       -1.5747867569
 C       -10.0627700335        6.8370882509       -2.1061967265
 O        -9.0464645731        6.2944800797       -1.7741472740
 C        -9.9819640642        8.0662719170       -3.0592742310
 C       -11.8077039656        4.9730195663       -2.1829331841
 C       -12.4739479082        7.5100510396       -1.9249542603
 C       -11.1584871659        8.7924862259        4.8736217231
 C       -10.0560991996       10.5073774302        3.3672568415
 C        -4.8289515887        5.3553135288        2.8154416605
 C        -5.6727253249        4.8154932522        0.5397368035
 C        -6.4215782694       -0.9404887952        3.2711415218
 C        -4.8980407691       -0.1158377326        1.3251082881
 C        -7.0583667603        0.4750108911       -3.6129767880
 C        -8.2340644083        2.3925325830       -4.5759685090
 C       -14.4557447310       -1.6794363732       -4.7516003373
 C       -15.9199999646        0.2158986954       -5.1853554782
 H       -17.2629534463        0.3502002667       -2.8393550232
 H       -16.1657584867        1.6155592569       -2.1725794192
 H       -16.5677014599        0.1408280779       -1.2042736759
 H       -11.9375717324       -0.8183714307       -4.8416817243
 H       -12.2753240626       -0.6741708879       -3.2053101238
 H       -11.1855555985        1.3859190794       -2.8677781557
 H       -11.1631542495        1.7165271153       -4.7146448884
 H        -8.6522682226       -0.1645719552       -1.2379597252
 H        -9.3209186552        1.0990147543       -0.0554370359
 H        -6.6247867598        1.8613919075        0.0740866387
 H        -6.4479432213        0.2888545675       -0.5845058179
 H        -7.2266137887        1.5763973678        4.7747717915
 H        -8.0372172682        1.6850387370        3.3077317345
 H        -6.1114715912        3.9372514148        4.3615835064
 H        -7.8196156605        4.0616185640        4.5522567682
 H        -5.7599326325        8.1267069485        2.6753377112
 H        -6.6218209589        7.2584640971        3.9442596622
 H        -8.0070955736        8.7835678692        1.7860609924
 H        -7.5856143054        9.6350363479        3.3000539397
 H       -12.6281384684        7.2006177550        2.9979389664
 H       -11.1870535851        6.4617213957        2.7582076561
 H       -12.7439067501        7.7760809691        0.5406795014
 H       -13.2558329842        6.1574151977        1.1123391766
 H       -10.8671592910        8.0305733360       -3.7293740618
 H        -9.0015742864        8.1937678422       -3.5241139389
 H       -10.0619324922        9.0068839830       -2.4432917157
 H       -11.0753200700        4.2321366635       -1.8287222434
 H       -11.7269993374        5.0238806319       -3.2290784350
 H       -12.7541191729        4.6796389161       -1.9536752746
 H       -12.6232797037        7.7129560587       -3.0204985590
 H       -12.1575318949        8.4065356925       -1.4678270078
 H       -13.4881809854        7.2639871030       -1.5954371568
 H       -10.5916099160        8.9608484300        5.8253463090
 H       -11.3793711022        7.6859991573        4.9606783195
 H       -12.0938169765        9.3791851355        4.9202781834
 H       -10.8543530169       11.1942621375        3.7269572473
 H        -9.6738940743       10.7438722510        2.4079334853
 H        -9.1969259036       10.7972542697        4.0612889830
 H        -4.9977240818        5.6849109479        3.8392661775
 H        -4.2145405806        6.1188551074        2.3051521947
 H        -4.1710560054        4.5607516603        2.6889347931
 H        -6.1044174613        5.5539889825       -0.1133636713
 H        -5.8313539913        3.7177348034        0.3599615326
 H        -4.5699044333        5.0026949503        0.4641510713
 H        -5.5920066770       -0.9944991603        3.9917817981
 H        -6.3955841634       -1.8943727004        2.7300532354
 H        -7.3468043704       -0.7419110524        3.7857137561
 H        -4.4730552379        0.8047709379        0.8614549556
 H        -5.1530480967       -0.8665870937        0.6256982401
 H        -4.1925447817       -0.5849214888        2.0255877149
 H        -6.1986028224        1.0550296401       -3.3991865181
 H        -6.9675596717        0.0789262366       -4.6075357333
 H        -7.1415685805       -0.3714174040       -2.9214484619
 H        -7.4674616692        3.0860763231       -4.3408944956
 H        -9.1391587162        2.9766545709       -4.8450751022
 H        -7.9265337777        2.0341545890       -5.5837376873
 H       -13.9610145260       -1.5536603960       -5.7223218205
 H       -15.3646912790       -2.2255486695       -4.8162332936
 H       -13.7762852497       -2.1194646172       -4.0258463003
 H       -15.6415731088        0.1550341024       -6.2501701851
 H       -16.1314455050        1.2841142961       -5.0072889822
 H       -16.8600516436       -0.3884180324       -5.0597692256
 Na       -8.6723433045        4.7392612209       -0.2427068294
