117

 C       -16.3524619166        0.6095789690       -2.2934811988
 C       -15.3062228752       -0.4352731598       -2.7257178188
 O       -14.7041521571       -1.1753447899       -2.0088868286
 C       -14.8335808894       -0.3128312431       -4.2850025288
 C       -13.5294514857        0.6530960053       -4.0790868136
 O       -13.6604314018        1.8794869418       -4.0268660755
 C       -12.2155419774       -0.0348135472       -3.9675632148
 C       -11.0305908042        0.8983295467       -3.8611044291
 C        -9.6623350046        0.2331469085       -3.8525021844
 O        -9.4729516553       -0.8799080223       -4.1684855632
 C        -8.4155575490        1.1673382424       -3.4527287648
 C        -8.6013090119        1.8082914464       -2.1018388017
 O        -8.9505639966        2.9315572526       -1.9579609121
 C        -8.5369501899        0.9077570481       -0.8653352746
 C        -7.2480442819        1.0747320266       -0.0916744386
 C        -7.4231631325        0.4224693485        1.3054119318
 O        -8.5118218438        0.1301210035        1.7754995281
 C        -6.0946363135        0.1588228287        2.2155891577
 C        -5.9961608536        1.5723667489        2.8125483485
 O        -5.0399649819        2.3132934264        2.5279063549
 C        -6.9674302144        2.0009760463        3.8529451666
 C        -7.0280502408        3.5214674151        3.9105178300
 C        -7.2009757392        4.1467978224        2.4960788120
 O        -8.0841818519        3.7790841546        1.6985858036
 C        -6.0666469913        5.2223010884        2.0025957143
 C        -6.8915100190        6.5194166467        1.8596683071
 O        -7.8163624369        6.5830496512        1.0197612141
 C        -6.6564089039        7.6986752443        2.8326539331
 C        -7.7451250888        8.7679945570        2.8864389974
 C        -9.0575301331        8.2298221114        3.5723784113
 O        -9.0499126071        7.0432125476        3.9369782164
 C       -10.3267909153        9.0762041730        3.5386400502
 C       -11.2795676642        8.7004775261        2.2474259128
 O       -11.4273917571        9.4403212513        1.3047714220
 C       -11.8672567654        7.2599046980        2.2898645831
 C       -12.5547475680        6.8588843910        1.0015205853
 C       -11.4366288098        6.2042587813        0.0583155934
 O       -10.6814585720        5.4390513846        0.5688274887
 C       -11.4563067312        6.4140149202       -1.5815523092
 C       -10.0555448363        6.8232059129       -2.1727537415
 O        -9.0003289923        6.3178892726       -1.9118098863
 C        -9.9139650521        8.0984692654       -3.1022787056
 C       -11.9107662715        5.0254128480       -2.1256817190
 C       -12.4525544589        7.5308999105       -2.0797513075
 C       -11.1206940005        8.7052437200        4.8261014526
 C       -10.0985488476       10.6244110268        3.4030479169
 C        -4.9133545310        5.3682299905        3.0447568172
 C        -5.6395049994        4.5778665120        0.6419169450
 C        -6.4009234995       -0.9340356078        3.1820333080
 C        -4.7500802931       -0.1719725808        1.4172426645
 C        -7.1467610990        0.2681028230       -3.5713233375
 C        -8.3606879767        2.3335847400       -4.4837752274
 C       -14.5240779116       -1.8214335940       -4.7018075819
 C       -15.9595304252        0.3409508489       -5.1638299400
 H       -17.1036889009        0.6103449075       -3.0668703563
 H       -15.8731838017        1.5997884786       -2.2392012431
 H       -16.7891536065        0.3936051206       -1.3809357260
 H       -12.0951958913       -0.6700837782       -4.7936902903
 H       -12.2866872759       -0.7400610035       -3.1357580169
 H       -11.0349280436        1.4820119416       -2.9446031777
 H       -11.0325684433        1.5242826196       -4.7659696406
 H        -8.6221416288       -0.1392689091       -1.0925290988
 H        -9.2559969380        1.2541930166       -0.1282773999
 H        -6.9616919249        2.0990697765        0.1386297259
 H        -6.2553537248        0.7165637278       -0.6351567665
 H        -6.6612038778        1.5561317954        4.8286879478
 H        -7.9482041919        1.5493840072        3.8050868477
 H        -6.2216722524        4.0521436082        4.3988840059
 H        -7.9529334745        3.7878660013        4.4875007949
 H        -5.6907510569        8.1622503101        2.5600821975
 H        -6.5395273779        7.3068773065        3.8241719013
 H        -8.0041194062        9.0471282855        1.8437351682
 H        -7.4192136519        9.6950626558        3.3613915083
 H       -12.4701126991        6.9544431164        3.0926315299
 H       -10.9916184113        6.5864357326        2.4655385180
 H       -12.9967294893        7.7530295871        0.5623679180
 H       -13.3574854902        6.0844923936        1.1883756322
 H       -10.6898080370        8.1055360926       -3.9005397469
 H        -8.8292637865        8.1666996843       -3.4039617403
 H       -10.0362688320        8.9832294707       -2.5595442447
 H       -11.2856545855        4.2362348764       -1.7232353579
 H       -11.9312554591        4.9538431532       -3.2230741798
 H       -12.9993169979        4.8903505898       -1.7549654693
 H       -12.6820348203        7.4861430405       -3.1297742444
 H       -12.1116315871        8.5208031450       -1.8113342693
 H       -13.4394744187        7.3681003626       -1.6243343867
 H       -10.4714216685        8.7174475283        5.7179558842
 H       -11.5776816867        7.7280544174        4.9340894356
 H       -11.8951594297        9.5461672596        4.9618507286
 H       -11.0062286932       11.1667497017        3.6554202722
 H        -9.6413322557       10.9033295424        2.4282423426
 H        -9.3418438610       11.0564091246        4.0954154164
 H        -5.3320964518        5.7108953918        3.9699460390
 H        -4.1540484605        6.0633013627        2.7578465137
 H        -4.2717790330        4.4248911601        3.1227053680
 H        -6.0953351292        5.0936587912       -0.2267157535
 H        -5.7395686609        3.4948983866        0.7584626301
 H        -4.5747377706        4.7167594296        0.5727750962
 H        -5.5103185368       -1.1770153269        3.6822615473
 H        -6.6281701589       -1.7365663302        2.5640984071
 H        -7.1347264953       -0.7332123213        3.8939165894
 H        -4.3774817480        0.7249607737        1.0009350010
 H        -4.9753911767       -0.9453048095        0.6085447146
 H        -4.0319246462       -0.6410367904        2.1367469709
 H        -6.2690537370        0.8095245499       -3.2225930328
 H        -7.0224746507       -0.0313735958       -4.5977562741
 H        -7.2855317767       -0.6318947597       -3.0020165394
 H        -7.5955437278        3.0691927887       -4.2369224645
 H        -9.2829019007        2.9027448204       -4.5600313436
 H        -8.1652751013        2.0913678478       -5.5278262982
 H       -14.1619949699       -1.7495753901       -5.7317914464
 H       -15.4497960437       -2.3418462391       -4.5824740640
 H       -13.7317403116       -2.2671999202       -4.0798548087
 H       -15.8052884253        0.2494729019       -6.2189538714
 H       -15.9693890953        1.4020984073       -5.0138007175
 H       -16.9388465448       -0.0821089334       -4.9650232118
 Na       -8.7396077307        4.6560251767       -0.2936648774
