117

 C       -16.3464799539        0.8091932512       -2.0990209957
 C       -15.2998002397       -0.2635823139       -2.5912055979
 O       -14.9444091805       -1.2015853596       -1.8644660070
 C       -14.7976151781       -0.2400943983       -4.2074145545
 C       -13.5388727909        0.5307022648       -4.0184970211
 O       -13.6087071306        1.7607848800       -4.0115482465
 C       -12.1967142630       -0.2096099513       -3.8289439113
 C       -11.0939578613        0.8467554848       -3.8301793709
 C        -9.6961888210        0.1573230096       -3.9333842643
 O        -9.6372147080       -1.0180562293       -4.2472476967
 C        -8.4628819309        1.0837884078       -3.4853139457
 C        -8.6460636568        1.6756910608       -2.0808376329
 O        -8.7157088475        2.9345787203       -1.9653849385
 C        -8.5449649849        0.8261849209       -0.8647561477
 C        -7.2698128682        1.2116755363       -0.0490306357
 C        -7.2889871788        0.4822698565        1.3548505684
 O        -8.3525239221        0.2613479031        1.8504836383
 C        -6.0001250797        0.2041420349        2.2410237987
 C        -5.7711221012        1.4968053040        3.0051231179
 O        -4.8077291447        2.1539202920        2.7502595702
 C        -6.8509250171        1.8943180782        4.0068415991
 C        -7.3301562736        3.3806783928        4.0387578346
 C        -7.2600928046        3.9953049034        2.5750028113
 O        -8.0460659110        3.5981424798        1.7767590584
 C        -6.1878397200        5.1089344034        2.2260224514
 C        -7.0502387166        6.4773740485        1.8251058392
 O        -7.7832595782        6.5254941142        0.9016402384
 C        -6.6336767954        7.7539291054        2.5403506080
 C        -7.6930644735        8.9019735965        2.6790493426
 C        -8.9559443568        8.3469303901        3.2887160899
 O        -9.0446884676        7.2261777440        3.7278896973
 C       -10.2891906766        9.1606622666        3.3846454048
 C       -11.2639505465        8.7264290276        2.1339822061
 O       -11.3860328187        9.5055086642        1.2311846686
 C       -12.0583650389        7.4636126883        2.2621162510
 C       -12.5626662947        7.0665622287        0.8225035195
 C       -11.4359241554        6.3793758798       -0.0536680635
 O       -10.6845207235        5.5315563321        0.3976556485
 C       -11.5219915911        6.5957474246       -1.6604948702
 C       -10.0651585034        6.8711686098       -2.2417405335
 O        -9.1725203516        6.0889472882       -1.9558109790
 C        -9.8959257108        8.0449350158       -3.1210470770
 C       -11.7952468466        5.1279750914       -2.1788098341
 C       -12.6210044830        7.5956223482       -2.0518750710
 C       -11.0230470802        8.7820016143        4.7336434980
 C       -10.0880402527       10.6588259492        3.4525194505
 C        -5.0975448596        5.2912636087        3.2466529280
 C        -5.4479191883        4.7708033380        0.8792942671
 C        -6.4130839910       -1.0888144006        3.1502235921
 C        -4.8055579311       -0.2145707345        1.3195199099
 C        -7.1737090968        0.1775138538       -3.4685064778
 C        -8.3050458467        2.0984418865       -4.5758471786
 C       -14.5810668013       -1.6757218602       -4.7247081091
 C       -15.7376377522        0.5335600007       -5.1252350660
 H       -17.3078784305        0.6575031681       -2.5512308306
 H       -15.9807707579        1.8189973370       -2.1349335621
 H       -16.5135303721        0.6174057334       -1.0005664635
 H       -12.0555572164       -1.0629469227       -4.5900728951
 H       -12.2196748313       -0.7149636848       -2.8494659907
 H       -11.1218973061        1.3623743263       -2.8570245937
 H       -11.2228161472        1.5896808490       -4.6059780824
 H        -8.4994263220       -0.2467678053       -1.1187388000
 H        -9.3466472591        1.1075449638       -0.1909037907
 H        -7.0922305220        2.2753911305        0.1678700759
 H        -6.4565748143        0.9849963610       -0.5718540590
 H        -6.6487071653        1.5747081448        5.0064762887
 H        -7.7530830863        1.2571207310        3.9065505579
 H        -6.6934267534        3.9735395223        4.7062660997
 H        -8.3375090832        3.4647671485        4.4352387454
 H        -5.9119901978        8.1427927477        1.8228275796
 H        -6.1632152906        7.6686084403        3.5473652618
 H        -7.9726171108        9.4107438014        1.7432765804
 H        -7.2963812624        9.7925291845        3.2782079839
 H       -12.9524710145        7.5533898577        2.9840159401
 H       -11.5090355316        6.6446420949        2.7329381866
 H       -12.8689756066        7.9850683557        0.3130781046
 H       -13.3733338740        6.3753295296        0.8254265546
 H       -10.4688274351        7.8812676484       -3.9812920532
 H        -8.8819369676        8.2326313379       -3.1610648950
 H       -10.3792547771        8.9547815773       -2.6582116865
 H       -10.9113025660        4.4376523289       -1.9097331631
 H       -11.9783034513        5.0878513249       -3.2768046617
 H       -12.6645822727        4.7632459944       -1.7115031134
 H       -12.7291678426        7.8057887139       -3.1345107359
 H       -12.4363707659        8.5078352944       -1.5117283036
 H       -13.5942946599        7.2218001963       -1.7865939712
 H       -10.5005821455        9.0976398626        5.6040148113
 H       -10.9554267507        7.7070301797        4.8004337588
 H       -11.9915560149        9.0808681547        4.8324594108
 H       -11.0476954734       11.1572270582        3.3645231410
 H        -9.4164917619       11.0129454449        2.7379651886
 H        -9.6295860777       10.9633936946        4.3900728128
 H        -5.4802104184        5.6306227594        4.2453185183
 H        -4.2786353771        6.0235456955        2.9752703028
 H        -4.6222396457        4.3717607463        3.3609965072
 H        -6.1727821152        4.3919777896        0.1897537558
 H        -4.6823903592        4.0384928107        1.1424266586
 H        -4.9353595248        5.6505029500        0.4688530687
 H        -5.6047004037       -1.4020424366        3.8400811637
 H        -6.8296700610       -1.8591638858        2.4611666244
 H        -7.2473662457       -0.8352640104        3.8393814357
 H        -4.6103720936        0.4431520430        0.4139512266
 H        -5.0958933648       -1.1565217261        1.0181758833
 H        -3.9429422374       -0.3422485012        1.9313194779
 H        -6.3605050089        0.7842146216       -3.0753407038
 H        -6.9292873748       -0.3238403084       -4.4201751018
 H        -7.3595906532       -0.6699918331       -2.7634968609
 H        -7.3886379129        2.6323053328       -4.5948488019
 H        -9.0331689142        2.8970170664       -4.4593696930
 H        -8.4960043323        1.7742966293       -5.5823849681
 H       -14.0012105800       -1.6475437538       -5.6335608772
 H       -15.5760079597       -2.1315741468       -4.7364619910
 H       -14.0072788567       -2.1602221361       -3.9548735030
 H       -15.3187599597        0.6096267389       -6.1082099280
 H       -15.8243562091        1.5587651035       -4.8591412519
 H       -16.6940172557        0.0727324609       -5.2335388302
 Na       -8.7937491544        4.5118559291       -0.3330819499
