117

 C       -16.2478765241        0.9241452964       -2.0557880069
 C       -15.4654523590       -0.2296503768       -2.5505297195
 O       -15.1544166888       -1.1847454016       -1.9185650102
 C       -14.8979752454       -0.1434587855       -4.0316313932
 C       -13.5540306130        0.5954219971       -3.9195827644
 O       -13.5572798183        1.7935844741       -3.9811494780
 C       -12.2009410576       -0.2393240926       -3.6825086764
 C       -11.0250931810        0.7257611211       -3.6499958715
 C        -9.6512778529        0.1091115479       -3.8271480319
 O        -9.4924121110       -1.0598427268       -4.1957783547
 C        -8.3155968506        0.9561036179       -3.4669423161
 C        -8.4782242382        1.7232445156       -2.1634064292
 O        -8.6221775414        2.9132584840       -2.1354273563
 C        -8.5530883481        0.8490630995       -0.8796404935
 C        -7.2504646208        0.8812473796       -0.0502825054
 C        -7.3638163776        0.3859062558        1.3899101017
 O        -8.4537814467        0.3398742857        1.9275897493
 C        -5.9974509973        0.1557535052        2.2396581298
 C        -5.7382505796        1.4216091863        3.1158771747
 O        -4.6522642435        2.0170877219        3.0464546724
 C        -6.8917947611        1.8246553410        4.0903490765
 C        -7.2529749843        3.3046191224        4.0513599095
 C        -7.2325749915        3.9637001116        2.6586728461
 O        -7.9754705580        3.5185389527        1.7620918418
 C        -6.2812283548        5.1406894175        2.3087120279
 C        -7.0901892710        6.4405322839        1.9185520056
 O        -7.8695254472        6.3811320931        0.9494237086
 C        -6.6863758915        7.8384155790        2.3270756505
 C        -7.8587956684        8.7902057821        2.1661002802
 C        -9.0577105683        8.2660997020        3.0605454384
 O        -8.9587369674        7.1329482958        3.5185759881
 C       -10.2883858119        9.1114906807        3.3383801642
 C       -11.1117427005        8.9071714512        2.1118348013
 O       -11.0745815344        9.6625060906        1.1463182825
 C       -11.9876079744        7.5980132584        2.0944415103
 C       -12.6195254428        7.2794035191        0.7328481160
 C       -11.5564492417        6.4081948181       -0.1131926688
 O       -10.7248076450        5.7643795089        0.5041407752
 C       -11.5678472787        6.5411937700       -1.7486543487
 C       -10.0962428780        6.8870925192       -2.2012305154
 O        -9.1515999799        6.0922439983       -1.9797260939
 C        -9.9524287638        8.1325945425       -3.0693976702
 C       -12.0250519297        5.1752324649       -2.3643074515
 C       -12.6410067273        7.5596476184       -2.2502053850
 C       -10.9868381444        8.8061648680        4.6866175428
 C        -9.9579468707       10.6437027170        3.3005159332
 C        -5.3956630649        5.4972988324        3.5217130180
 C        -5.4281868548        4.8014128512        1.0289526136
 C        -6.2041290703       -1.0431294628        3.1637936444
 C        -4.7919667956       -0.1372596987        1.3067493106
 C        -7.0881522511       -0.0712556310       -3.5012426982
 C        -8.2133174886        1.8856512278       -4.6379524049
 C       -14.7755799377       -1.5901922077       -4.5754775213
 C       -15.8705524260        0.6149478514       -4.9780817596
 H       -17.3158894992        0.6589938707       -2.3324245202
 H       -15.8927367575        1.8092714184       -2.6038461518
 H       -16.2402812831        1.1793121204       -1.0018547116
 H       -12.1859378848       -0.8820216067       -4.5143474696
 H       -12.2836691818       -0.8633536175       -2.7808539970
 H       -11.0268605449        1.2424114702       -2.6528679047
 H       -11.1684010200        1.5788251713       -4.3747207314
 H        -8.7373809914       -0.1727891431       -1.2362419664
 H        -9.3717831095        1.2230821387       -0.2206385728
 H        -6.8586597281        1.9158850218        0.0469234286
 H        -6.3503059661        0.3922440820       -0.6752859342
 H        -6.5662490199        1.6089196918        5.1610988452
 H        -7.7573046569        1.1736097359        4.0779693473
 H        -6.5405802593        3.8409646252        4.6918254717
 H        -8.2518902076        3.5486123450        4.4139217921
 H        -5.8621081703        8.2054039866        1.6756449035
 H        -6.4617864369        7.9273808028        3.3743628002
 H        -8.1806877132        9.0108687234        1.1395932506
 H        -7.5730032529        9.7881895308        2.4351563759
 H       -12.7205634840        7.6796621050        2.8286833075
 H       -11.5000126728        6.6693931870        2.3885004677
 H       -12.8035168384        8.1922874570        0.1659489790
 H       -13.5543845826        6.6783427497        0.8066014378
 H       -10.5132127928        7.9175782769       -4.0255782817
 H        -8.8629400894        8.3991445070       -3.1132222721
 H       -10.5038073615        8.9507113221       -2.6546327910
 H       -11.3669733982        4.4374201174       -2.1513147589
 H       -12.1193119128        5.3198917342       -3.4016450717
 H       -13.0133351781        4.9013853560       -2.0012177926
 H       -12.7602667140        7.4139559417       -3.2978268468
 H       -12.4963460035        8.6376600373       -2.0234136802
 H       -13.6207962356        7.2643914379       -1.8258658011
 H       -10.5515959316        9.3980706452        5.5184858529
 H       -11.0193676950        7.7557235150        4.9719502206
 H       -12.0736059085        9.1469344207        4.6446648741
 H       -10.8884667672       11.2179726800        3.3484025133
 H        -9.5585302593       10.8816768937        2.2428844707
 H        -9.2081240272       10.9773781376        4.0168774981
 H        -5.9564508890        5.8642299966        4.3589261399
 H        -4.6940742623        6.2581729100        3.3240661820
 H        -4.8641410278        4.5696689826        3.9508060547
 H        -6.0020114164        3.9743229929        0.4602533679
 H        -4.4487806372        4.3636636677        1.3024405946
 H        -5.2541815322        5.7182739249        0.4483551858
 H        -5.4338295015       -1.0575465190        3.9501263424
 H        -6.3057537181       -1.9433059496        2.5342559489
 H        -7.1824151837       -0.9856353541        3.7104090050
 H        -4.7089907371        0.7976392225        0.8513604752
 H        -4.9584260579       -0.9060215268        0.4993159365
 H        -3.8799126360       -0.3656602345        1.8517983991
 H        -6.1541105560        0.4907060685       -3.4170484097
 H        -7.1712838894       -0.5170113389       -4.4770442748
 H        -7.1042885492       -0.8965561113       -2.8316266933
 H        -7.3227185052        2.5515183327       -4.6880090399
 H        -9.0090718896        2.6212337714       -4.6360590868
 H        -8.2991111262        1.4175276415       -5.6093983297
 H       -14.0274831572       -1.6048073394       -5.3524132930
 H       -15.7556326082       -1.8741431620       -4.9184165480
 H       -14.4921223791       -2.2227393803       -3.7429668056
 H       -15.5291242405        0.8851864006       -6.0103646773
 H       -16.1997511401        1.6132677265       -4.5733788661
 H       -16.7868725138       -0.0148506619       -5.0781554944
 Na       -8.7664382058        4.5290641149       -0.1922707239
