117

 C       -16.2770385338        1.0269952791       -1.9980093876
 C       -15.4124440023       -0.1755675915       -2.5448763954
 O       -15.2878841987       -1.1876651174       -1.8560797065
 C       -14.9262422553       -0.1659876545       -4.0453671050
 C       -13.5720552716        0.6384412603       -3.9710533123
 O       -13.5633270576        1.8348700658       -3.9268879679
 C       -12.1995178215       -0.1433366431       -3.6739328546
 C       -10.9397419336        0.7398754821       -3.4841939752
 C        -9.5786671497       -0.0132900531       -3.6801270890
 O        -9.4463398222       -1.1298760609       -4.1614889241
 C        -8.2739393195        0.8886074056       -3.5482309973
 C        -8.4747541981        1.6523749783       -2.1854913499
 O        -8.5389507509        2.8852617753       -2.1354841522
 C        -8.6102785135        0.8863932530       -0.8262374899
 C        -7.2256020056        0.7920484678       -0.1652353412
 C        -7.3253435351        0.3966723733        1.3312777071
 O        -8.3725381457        0.3461569902        1.9269004166
 C        -6.0421952736        0.1571955624        2.1922777114
 C        -5.8102497528        1.3772128179        3.1655901520
 O        -4.7565200633        1.9190938307        3.1320923338
 C        -6.9014570960        1.8308749665        4.0867772900
 C        -7.2304200609        3.3389534275        4.1170760389
 C        -7.2469538964        3.9363447706        2.6818439217
 O        -7.9042233830        3.4599132145        1.7988784794
 C        -6.2605667586        5.2090464135        2.3271595202
 C        -7.1429628018        6.4524223819        1.7716702535
 O        -8.0014301983        6.3419997640        0.9807285372
 C        -6.7231714541        7.8399773989        2.2670572312
 C        -7.9387845801        8.7297334146        2.0913288990
 C        -9.0569528862        8.2580315854        3.0359917017
 O        -8.9811307289        7.1447025606        3.4734436554
 C       -10.2695891569        9.1782245148        3.2431461038
 C       -11.1432586862        8.9776479377        2.0185047347
 O       -11.0100009891        9.6011707310        0.9847955631
 C       -11.9979382743        7.6026894684        2.0076752691
 C       -12.5979216218        7.3119707996        0.6196428375
 C       -11.5525531439        6.5471805703       -0.2279272732
 O       -10.8320152970        5.7726590104        0.3616187980
 C       -11.6319073264        6.5558641648       -1.7459661396
 C       -10.1359436228        6.8343977929       -2.2337071402
 O        -9.1389348329        6.1657593982       -1.9363519623
 C        -9.8977513191        8.0884534701       -3.0169569400
 C       -12.0675034111        5.1741240801       -2.2551428792
 C       -12.6838300980        7.5223112532       -2.2728297847
 C       -10.8958187726        8.8319440646        4.6151712635
 C        -9.7828585037       10.6765620979        3.3917275772
 C        -5.3928411932        5.6418032852        3.5361942123
 C        -5.3046098964        4.6815850930        1.2295374950
 C        -6.1289862461       -1.1275929227        3.2548723187
 C        -4.7602204260       -0.0124346704        1.3287360376
 C        -7.1255659738       -0.1204067642       -3.4865764083
 C        -8.1911637167        1.9066154968       -4.6679770919
 C       -14.8194392638       -1.6193606633       -4.5797565172
 C       -15.9040534773        0.6444200074       -4.8938857749
 H       -17.3119440916        0.8561154066       -2.2710809723
 H       -15.9145329037        1.9547975748       -2.2773171311
 H       -16.2433184324        1.0030659906       -0.8889862070
 H       -12.0888425834       -0.8539306167       -4.4661710380
 H       -12.4189281398       -0.6703339735       -2.7445691161
 H       -10.9899326097        1.2365628446       -2.5073552343
 H       -10.9040861175        1.5956294798       -4.1670416218
 H        -8.9410676031       -0.1019761719       -1.0828513545
 H        -9.3420247802        1.3545030788       -0.1279973594
 H        -6.6835604332        1.7963337494       -0.2471494788
 H        -6.5770859790        0.1727962037       -0.7504479136
 H        -6.7078825916        1.4491930389        5.0841582288
 H        -7.8503464089        1.3300316511        3.8764298609
 H        -6.6334278369        3.9741489374        4.8374960900
 H        -8.2937176977        3.4619779789        4.3618049088
 H        -5.9488671959        8.2250233802        1.6348293709
 H        -6.4758628777        7.8667403221        3.3244762003
 H        -8.2895195770        8.6512044618        1.0483257238
 H        -7.7849152237        9.7852745923        2.0675206706
 H       -12.8182508894        7.6170290756        2.7388783661
 H       -11.4597734425        6.7123517894        2.2966637912
 H       -12.8858005495        8.2969081221        0.1316810204
 H       -13.4464916467        6.6240876288        0.6098829853
 H       -10.5507750464        8.1057464484       -3.8841721591
 H        -8.8567386727        8.3112316363       -3.1144795591
 H       -10.3987813955        8.8852368140       -2.3614774138
 H       -11.4077508335        4.3995503653       -1.7502841068
 H       -11.9547035428        5.1766083266       -3.3620764265
 H       -13.0843900128        4.9876312990       -2.0244010806
 H       -12.7137996050        7.3247700105       -3.3316996012
 H       -12.4777278869        8.6122216203       -2.1410842128
 H       -13.6647690717        7.3316870558       -1.8531570037
 H       -10.2919249147        9.2800600279        5.4652992267
 H       -11.0863147703        7.7268820560        4.8193358796
 H       -11.8745375182        9.3031229025        4.7022662213
 H       -10.6045425764       11.3187690464        3.8102764014
 H        -9.4716126798       11.1936282800        2.4434653461
 H        -8.9191133875       10.6345624218        4.0579212374
 H        -5.9088843213        6.0502248568        4.4311839343
 H        -4.7309323521        6.4495801717        3.2193043253
 H        -4.8421089871        4.8380521811        3.9496402695
 H        -5.9849792366        4.1477383043        0.5273449135
 H        -4.5730393636        3.9249300396        1.5578705164
 H        -4.8027787069        5.5686229952        0.7905018495
 H        -5.3679233960       -0.9931939624        3.9656203198
 H        -6.1121126609       -2.0738577491        2.7852549150
 H        -7.0462508943       -1.0964840057        3.7841418470
 H        -4.4293315489        1.0109359496        0.9594395362
 H        -4.9414826809       -0.6717556551        0.4729900890
 H        -3.9821861919       -0.4653680012        1.9453966823
 H        -6.1635936511        0.3445683583       -3.4283831911
 H        -7.2160640792       -0.7511176012       -4.3577386865
 H        -7.2699127570       -0.7870272525       -2.6684570002
 H        -7.3282048954        2.6094404112       -4.5682220318
 H        -9.0295799302        2.5920742721       -4.7703557138
 H        -8.0613550288        1.4653331503       -5.6428876246
 H       -14.2618426896       -1.6508838953       -5.5051816721
 H       -15.8609282458       -2.0256247899       -4.7090572502
 H       -14.3229988362       -2.1605223610       -3.7929850647
 H       -15.5821386631        0.6710121509       -5.9616411431
 H       -15.9367116865        1.7112118672       -4.5948754299
 H       -16.9166031731        0.2503539643       -4.8876721380
 Na       -8.8226748766        4.5399755901       -0.2554074388
