117

 C       -15.8783240172        1.4807265481       -1.6131262446
 C       -15.5066511341        0.1475823079       -2.2986552372
 O       -15.5356570293       -0.9613943997       -1.7038111578
 C       -14.8750979103        0.1703770904       -3.7579475362
 C       -13.5193709049        0.8023776560       -3.6206760233
 O       -13.5482877261        2.0076934755       -3.4456062495
 C       -12.2270208410       -0.0521736284       -3.4687199308
 C       -10.9803610551        0.7916544044       -3.2198425273
 C        -9.7172231587       -0.0299429338       -3.3338125660
 O        -9.7315388809       -1.2001906502       -3.4327791662
 C        -8.3735819740        0.8194067487       -3.3265401275
 C        -8.4541884228        1.5919449732       -1.9357545319
 O        -8.7141153795        2.7600706686       -1.9411196884
 C        -8.3989783339        0.8171691769       -0.6363445642
 C        -7.1016626198        0.8117931402        0.2074310210
 C        -7.2207377629       -0.0205400350        1.5232044798
 O        -8.2631156867       -0.4838092888        1.8796510001
 C        -5.9697778350        0.1187713233        2.4991266354
 C        -6.0258780838        1.4751982966        3.1662925073
 O        -5.0608617021        2.1269012840        3.4167882063
 C        -7.4370873904        1.9632122327        3.7671605455
 C        -7.5993158008        3.4552346478        3.9440277262
 C        -7.3582357680        4.0520542323        2.5355115589
 O        -8.0108664030        3.5825714657        1.6335505072
 C        -6.2919868401        5.1515278282        2.3287562828
 C        -6.8904801788        6.3634707627        1.4367141897
 O        -7.3897881788        6.1124703880        0.4032193465
 C        -6.5528483208        7.8155399435        1.7440371914
 C        -7.8407877550        8.6721923961        1.5515950174
 C        -8.7783493855        8.4329199831        2.8040334649
 O        -8.4678167977        7.5489707650        3.5731610869
 C       -10.1078579700        9.1310198736        2.8545488375
 C       -10.9184279843        8.9456013469        1.5374780472
 O       -10.5764667335        9.5065967609        0.5161330891
 C       -12.0311573420        7.9028599001        1.5455952195
 C       -12.6457112655        7.5796669669        0.1637601118
 C       -11.7790342360        6.4775911622       -0.4767289416
 O       -11.1869818692        5.7690752635        0.2932628904
 C       -11.6402059266        6.2234963057       -2.0078939258
 C       -10.0935222757        6.6759842296       -2.3094837320
 O        -9.0525503306        6.1350847998       -1.9466162705
 C        -9.8950590319        8.0951413461       -2.9005515410
 C       -11.8921896189        4.7355115423       -2.2784394701
 C       -12.6015885888        7.0511890675       -2.8337223588
 C       -10.9201561940        8.7439528201        4.0304754290
 C        -9.8168995708       10.7005173074        3.0119003932
 C        -5.7854546605        5.6643154938        3.6728275544
 C        -5.1981163684        4.3907055390        1.4901479913
 C        -6.1424804076       -1.0583364667        3.4718129966
 C        -4.7221176872       -0.0474354961        1.7049523351
 C        -7.1853068262       -0.2140223834       -3.2472634297
 C        -8.3390867762        1.7562323014       -4.5258416025
 C       -14.8644880636       -1.2640912826       -4.3204844737
 C       -15.8346066150        1.0177302664       -4.6743941418
 H       -16.8612758795        1.8297262849       -1.9009931467
 H       -15.1822804497        2.2152916022       -1.8148313519
 H       -16.0088434972        1.2463635968       -0.5425110464
 H       -12.0747856191       -0.5802509932       -4.4040240531
 H       -12.4033162563       -0.7560770055       -2.5892959105
 H       -10.9449845507        1.1550877352       -2.1867231581
 H       -10.9292505084        1.6948977834       -3.8521575296
 H        -8.6379566266       -0.1876500922       -0.7644009019
 H        -9.2497272271        1.1592175260        0.0318960388
 H        -6.9163198979        1.9062525554        0.4645806417
 H        -6.2558316253        0.4072339272       -0.3415024690
 H        -7.4715395301        1.4717862254        4.7750430581
 H        -8.2097640861        1.6078804803        3.0926413513
 H        -6.9817591169        3.8368737123        4.7695774846
 H        -8.6201157275        3.6374970686        4.1869756326
 H        -5.8007446054        8.1592173629        0.9985864961
 H        -6.1929087285        8.0847090011        2.7502427825
 H        -8.4293157815        8.3419039488        0.6373979728
 H        -7.7444272993        9.7041928812        1.2519893844
 H       -12.8551230162        8.3349730689        2.1477185400
 H       -11.7031974073        6.9170836854        1.9943252486
 H       -12.7440432369        8.4654133410       -0.4585920519
 H       -13.6358078413        7.2176275904        0.3477964005
 H       -10.0228634155        8.0832841034       -3.9503874193
 H        -8.9232234783        8.4409430847       -2.8103303130
 H       -10.6427669769        8.7600900840       -2.4240815694
 H       -11.1798363912        4.0928214476       -1.6332803745
 H       -11.6688531156        4.5742946931       -3.3635390107
 H       -12.9275261811        4.5463735041       -2.1225693467
 H       -12.3816172278        6.8834629457       -3.8646143369
 H       -12.6064867699        8.1683138206       -2.6285073692
 H       -13.6035639809        6.6246053524       -2.6819054929
 H       -10.3389939737        9.0603488199        4.8897722539
 H       -11.0485420384        7.6729652135        4.1892912774
 H       -11.8631610916        9.1601289450        4.0891815753
 H       -10.7897898300       11.1632463908        3.1612325246
 H        -9.3670075190       10.9990492099        2.0691162754
 H        -9.2165302550       10.9347237273        3.8444392849
 H        -6.5168688989        6.1713487376        4.3255899658
 H        -5.0133344086        6.3765300034        3.4736291980
 H        -5.2195621811        5.0194390789        4.2788500161
 H        -5.7075222869        3.7939152547        0.7125613160
 H        -4.6480729312        3.7353251904        2.1195205350
 H        -4.5368685251        5.0179178421        0.9017993445
 H        -5.6500636408       -0.9454912154        4.4070468624
 H        -5.7316107511       -1.9666996401        3.0654299805
 H        -7.1751887484       -1.1993150862        3.6853421445
 H        -4.5006231196        0.8994886112        1.1636868303
 H        -4.8181593262       -0.8339246173        0.9608747770
 H        -3.8406222681       -0.2085995594        2.3020302633
 H        -6.2709248080        0.3487606174       -3.4389427178
 H        -7.2194766745       -0.9530693868       -4.0434782188
 H        -7.1413909676       -0.6385099126       -2.2699965339
 H        -7.3218522176        2.2155427766       -4.6455865482
 H        -9.0708967881        2.5394574787       -4.4163070933
 H        -8.5550710861        1.3060351163       -5.4744830193
 H       -14.3280602356       -1.3659209578       -5.2622300080
 H       -15.9304118878       -1.6134487423       -4.5210911694
 H       -14.4392560835       -1.9234253400       -3.5571731162
 H       -15.5264912178        0.9678530982       -5.7011575098
 H       -15.9102008181        2.0394405215       -4.3558526610
 H       -16.8120090854        0.6491157248       -4.6008263508
 Na       -9.0378235022        4.4854557503       -0.3164809586
