117

 C       -16.1342295493        1.6100387194       -1.2723868117
 C       -15.5852471943        0.4163376418       -2.0021092464
 O       -15.3104116790       -0.5297151197       -1.2876973317
 C       -15.0900254068        0.4500879587       -3.4652695493
 C       -13.6263509862        1.0642135798       -3.3927450374
 O       -13.4443907854        2.2325247630       -3.1298505715
 C       -12.4801808641        0.0283809965       -3.4681194055
 C       -11.1803478691        0.7816416057       -3.5549941673
 C        -9.9339256631       -0.1128508804       -3.2282176950
 O        -9.9927756537       -1.2998328772       -3.1089050369
 C        -8.4755985166        0.7062626477       -2.8753294123
 C        -8.6102618345        1.4562930431       -1.5116762552
 O        -8.5641602804        2.6693938766       -1.5586825457
 C        -8.6610096831        0.6781553289       -0.1241749946
 C        -7.2127988536        0.7109168812        0.5269792883
 C        -7.1154772407       -0.3662156765        1.6668837649
 O        -7.6537423553       -1.4658455583        1.5912076037
 C        -6.2417185647        0.0177138104        2.9526466383
 C        -6.3935531729        1.5399266022        3.3057242174
 O        -5.4187315400        2.2194636796        3.3173291524
 C        -7.7301643408        2.1057809161        3.7331821884
 C        -7.5468297487        3.6378374701        3.9149332679
 C        -7.4638161473        4.3372965126        2.5749735825
 O        -8.3518330277        4.0872935513        1.7733653037
 C        -6.2095319507        5.2740670914        2.0992004923
 C        -6.7664106431        6.5272732367        1.3838637907
 O        -7.4863957160        6.3607702787        0.3973329250
 C        -6.3368684408        7.9317195312        1.6976340323
 C        -7.4318303348        9.0395946749        1.8111486845
 C        -8.6443988137        8.5147761132        2.6317857750
 O        -8.4985468802        7.5060056598        3.2705116275
 C       -10.0188723509        9.1628847516        2.5017136944
 C       -10.6987489302        8.5562014108        1.1488492920
 O       -10.1472390259        8.5650227511        0.0661630712
 C       -11.9945599114        7.7351428607        1.3324583302
 C       -12.5255609827        7.3416602771       -0.0488331054
 C       -11.5344556544        6.3262310550       -0.7282760917
 O       -10.7529170971        5.7206913707       -0.0302847521
 C       -11.4753974248        6.0219572349       -2.3687732818
 C       -10.1391016800        6.6614316415       -2.8114523100
 O        -9.0487921622        6.1977591357       -2.4387796370
 C       -10.0108516915        8.0331555570       -3.5318042299
 C       -11.3940114560        4.4115153776       -2.4473527382
 C       -12.7506147367        6.5883372755       -3.1235359400
 C       -10.8580183507        8.8334126890        3.6968956425
 C       -10.0338706555       10.6789120184        2.1255151871
 C        -5.3442089555        5.6534833218        3.2716444692
 C        -5.5197182192        4.4148875880        1.0228756899
 C        -6.6750998751       -0.8275265459        4.1618423039
 C        -4.7930461967       -0.2912713588        2.4716591845
 C        -7.3522150248       -0.4164344525       -2.6374072504
 C        -8.0811262244        1.6725639631       -3.9768133731
 C       -15.1291387468       -0.9032868851       -4.1842985204
 C       -15.8983251056        1.5581590376       -4.2465085113
 H       -16.9051920978        2.2407475836       -1.7983220068
 H       -15.3184103632        2.2957376765       -1.0911669456
 H       -16.3749049522        1.2456741814       -0.2250831663
 H       -12.5756228835       -0.7451751012       -4.1856373490
 H       -12.5829691917       -0.5454633249       -2.5454338548
 H       -11.1412014932        1.4857091731       -2.7001840165
 H       -11.1328847794        1.2054008093       -4.5575651378
 H        -8.9675924749       -0.3363040608       -0.2598741098
 H        -9.2955720896        1.3197886879        0.6043359070
 H        -6.9250191844        1.7181651935        0.8182906174
 H        -6.5345692757        0.4934455744       -0.3118964231
 H        -7.9242256874        1.6591722402        4.7414222384
 H        -8.4789404006        1.9035441543        3.0062215086
 H        -6.8472829065        3.9070457937        4.7405340654
 H        -8.5654794877        3.9284172032        4.2504503835
 H        -5.6343005964        8.2314706013        0.9034123148
 H        -5.7392323276        7.9804620371        2.5868407236
 H        -7.8912300840        9.1717113863        0.7963730314
 H        -7.0377057398        9.9738243789        2.2222117675
 H       -12.7100304726        8.2476620559        1.9063235136
 H       -11.6976408944        6.8177261651        1.8683210089
 H       -12.8401685160        8.1725078784       -0.6709805283
 H       -13.5119521871        6.8089742011        0.1125938317
 H       -10.6434853126        8.0602507426       -4.4288153963
 H        -9.0085795548        8.1141610696       -3.8949329002
 H       -10.1856542318        8.8884703915       -2.7849166322
 H       -10.4989226092        4.1149550335       -1.9883219155
 H       -11.4150162397        4.1358734750       -3.4457563611
 H       -12.2223903113        3.9749150846       -1.9253973427
 H       -12.5131706070        6.7427424904       -4.1388196596
 H       -13.1591964627        7.5695207959       -2.7451845588
 H       -13.5397015817        5.8386312218       -3.1034782037
 H       -10.3917194248        9.1212065264        4.6376358509
 H       -11.1617543222        7.7780600439        3.6984940405
 H       -11.7042763075        9.4237461616        3.5998579142
 H       -11.0576674969       10.9956524570        1.9104135952
 H        -9.4902716497       10.6517667454        1.1833291541
 H        -9.5165583836       11.2506742896        2.8427067967
 H        -5.8772919681        6.3519739592        3.9622659128
 H        -4.4758895204        6.1556046497        2.9377352543
 H        -5.1599169456        4.8414340497        3.9174835432
 H        -6.2027191520        4.3359760998        0.1399740214
 H        -5.2253730665        3.4512609234        1.3716209500
 H        -4.5578995712        4.7688180819        0.7147300338
 H        -6.1217431606       -0.3661546353        5.0548166686
 H        -6.3520093858       -1.9326485278        4.0881320568
 H        -7.7655954622       -0.8368113829        4.5115564523
 H        -4.4601918854        0.5487514251        1.8745607481
 H        -4.6592627795       -1.1843954482        1.9010902444
 H        -4.1191035205       -0.4139071906        3.2811965966
 H        -6.3614389971        0.1048604442       -2.7019075098
 H        -7.4331352278       -1.1088100014       -3.4941015034
 H        -7.4139384823       -1.0662812316       -1.7821532724
 H        -7.0069916514        1.9689145026       -3.8715622649
 H        -8.6079732922        2.5990822618       -3.8339060428
 H        -8.2769461683        1.2307135655       -4.9335727552
 H       -14.2883300505       -1.1337224106       -4.7935656581
 H       -16.0563587232       -1.0102397044       -4.7778601247
 H       -15.1448920273       -1.7623774495       -3.5413632413
 H       -15.7181463401        1.4915302264       -5.3195151470
 H       -15.5722522808        2.5267691651       -3.8609050104
 H       -16.9459520340        1.4104236918       -4.1569683684
 Na       -8.6464403296        4.8000767249       -0.5621621658
