117

 C       -16.0878329618        1.7247511486       -1.1370506486
 C       -15.3889897445        0.5265536171       -1.8813324768
 O       -15.0331086664       -0.4870741618       -1.2937849408
 C       -15.0540437424        0.6126511630       -3.4569762926
 C       -13.6022922625        1.2143225950       -3.3397176690
 O       -13.4775912068        2.3739904967       -3.0170251691
 C       -12.4530406442        0.2440770052       -3.3727994281
 C       -11.1297311425        0.8927815099       -3.2162415107
 C       -10.0331313397       -0.1051813722       -2.9652219750
 O       -10.2094644446       -1.2762043377       -2.7848798863
 C        -8.5308748441        0.4112566290       -2.7804239480
 C        -8.5347164113        1.3258465814       -1.4941422095
 O        -8.4820543578        2.5166632569       -1.5121981167
 C        -8.6010415279        0.6365449813       -0.0568036321
 C        -7.1913228478        0.7361520395        0.6323950363
 C        -7.1346778706       -0.3675700307        1.7583663094
 O        -7.7994788117       -1.3901488887        1.6975182521
 C        -6.3963341301        0.0225448935        3.0832690926
 C        -6.3128469589        1.6241074635        3.2486424798
 O        -5.3061732524        2.2105910485        3.0156565782
 C        -7.6480762407        2.3629660580        3.7851247718
 C        -7.6450622892        3.8645244864        3.7227025040
 C        -7.3827675132        4.4313964417        2.3481349593
 O        -8.2787982932        4.2622651359        1.5931266019
 C        -6.1069029625        5.2497296042        1.9776919526
 C        -6.6801916750        6.6586886166        1.5284192592
 O        -7.2923852841        6.7034486510        0.4678950866
 C        -6.3252804769        7.9667330001        2.1914334287
 C        -7.4264175290        9.0303014128        1.9079153605
 C        -8.7359810169        8.3566779654        2.4906845426
 O        -8.6687430284        7.3036266400        3.0815459551
 C       -10.0468484835        9.2261971399        2.2894210373
 C       -10.7413037731        8.4359075182        1.0126216625
 O       -10.2034703833        8.4412386043       -0.0792768538
 C       -12.0780596419        7.7826998193        1.1897056305
 C       -12.4272786447        7.1482228944       -0.1504927691
 C       -11.4789842243        6.1340841310       -0.8139698111
 O       -10.7750124896        5.4141490522       -0.0964583580
 C       -11.4950057455        5.9867162892       -2.3903935386
 C       -10.1069756388        6.6406525237       -2.8500280368
 O        -9.0574433622        6.1724815527       -2.4073017921
 C       -10.1213552498        7.8059266961       -3.8865529367
 C       -11.3130188707        4.4386670525       -2.8082517912
 C       -12.6423418937        6.7452522956       -3.0695044633
 C       -10.8333046711        9.0280319693        3.5898091198
 C        -9.7990781632       10.7272740738        1.8268945677
 C        -5.1850734471        5.4117472846        3.1920059831
 C        -5.5302786543        4.5369521135        0.7205739906
 C        -7.0839616377       -0.6234106997        4.3349839350
 C        -4.8949200749       -0.4468867665        3.0181444756
 C        -7.6275838557       -0.8099830812       -2.6453458869
 C        -8.1574827052        1.2336560321       -4.0644697502
 C       -15.1884166539       -0.8507385956       -3.9765011864
 C       -15.9958843728        1.6850378411       -4.2142132692
 H       -16.8725125402        2.0969795802       -1.7907913448
 H       -15.4696064414        2.5085480821       -0.9732521171
 H       -16.4452367435        1.4544022102       -0.1335645388
 H       -12.5418117003       -0.3896733404       -4.2872906955
 H       -12.6894122084       -0.4697961108       -2.5876479451
 H       -11.1789761213        1.7053245030       -2.4391511974
 H       -10.8124349921        1.3164390150       -4.1822762085
 H        -8.8465350896       -0.4280901020       -0.1218367300
 H        -9.2876785586        1.2133816833        0.5675543176
 H        -6.9276958742        1.7517736058        0.9192430807
 H        -6.5585941473        0.4732769163       -0.2974976924
 H        -7.8063158047        2.0084377623        4.8342052564
 H        -8.4927019827        1.9597983163        3.1967439018
 H        -6.9222285969        4.1535233998        4.4530703701
 H        -8.5782473971        4.2706116568        4.1124301808
 H        -5.2950190436        8.3112399188        1.8734350589
 H        -6.2198952932        7.7685223552        3.2542267512
 H        -7.5784483996        8.8839648395        0.8492905685
 H        -7.2353105887       10.0622206025        2.2811596946
 H       -12.7711176033        8.6002642310        1.4068356849
 H       -12.1152463514        7.1006202624        2.0687908040
 H       -12.5814849610        7.9450150859       -0.8360701318
 H       -13.4585888935        6.7475464250       -0.0482021100
 H       -10.5139176157        7.5078620651       -4.8724177731
 H        -9.1439577180        8.1734908536       -3.9359004961
 H       -10.6785851410        8.6245417029       -3.4540710825
 H       -10.3796215445        4.0144554924       -2.3264317824
 H       -11.2721554626        4.4160946862       -3.9068763111
 H       -12.1862155052        3.8963390572       -2.4712169532
 H       -12.8527059367        6.3769241140       -4.0495986053
 H       -12.4704087422        7.8264738073       -3.1864158612
 H       -13.5453498094        6.6475390599       -2.4469763191
 H       -10.4576242024        9.7677907990        4.3243091002
 H       -10.6128124290        8.0108754719        3.9523513455
 H       -11.9075398548        9.1557103677        3.4701961581
 H       -10.7017801510       11.2966700214        1.7286642619
 H        -9.3565249849       10.6308535021        0.7881428297
 H        -9.0958099856       11.1092018380        2.5164737608
 H        -5.7283180371        6.0757696165        3.9295825856
 H        -4.2581440832        5.8952260135        2.9137253690
 H        -4.9240786610        4.4611475883        3.7290834319
 H        -6.3551094118        4.4374183832       -0.0398604125
 H        -5.1460992309        3.5405579189        0.8635621304
 H        -4.6970045725        5.1053583027        0.3232590251
 H        -6.5277867949       -0.4569894405        5.1921083391
 H        -7.1302808759       -1.6682174406        4.2074450063
 H        -8.0548860637       -0.2835991241        4.4452756940
 H        -4.4318753190       -0.0946869134        2.1163136550
 H        -4.7273374589       -1.5681410325        3.0270734456
 H        -4.2975361720       -0.0787984672        3.8761549214
 H        -6.6137478667       -0.5168477012       -2.3628411762
 H        -7.5761112191       -1.3241101082       -3.5988438560
 H        -7.9847165687       -1.5031853467       -1.9231227631
 H        -7.1736029740        1.7147005357       -3.8661067584
 H        -8.8597769414        2.0473851788       -4.2301330951
 H        -7.9762919523        0.5485259668       -4.8894850026
 H       -15.3658875169       -0.9177015723       -5.0556513796
 H       -16.0164260396       -1.4128214811       -3.5671656330
 H       -14.3203014226       -1.5196751913       -3.8355224756
 H       -15.8118452005        1.7798748153       -5.2795030440
 H       -15.8198830376        2.6199929997       -3.6743565333
 H       -17.0596415941        1.4212577497       -4.1394384187
 Na       -8.6019984357        4.7636719072       -0.5578336388
