117

 C       -16.1182424692        1.6689215852       -1.0123115208
 C       -15.3799015269        0.5677565301       -1.7046146371
 O       -15.0617229555       -0.4377726726       -1.0483627202
 C       -15.1765970603        0.6829020884       -3.2977049171
 C       -13.7001538853        1.2640934183       -3.4278531193
 O       -13.5975606241        2.4582027008       -3.3224707428
 C       -12.4433121823        0.3504333933       -3.3724696074
 C       -11.0695802419        0.9444687302       -2.9394082149
 C       -10.0355680558       -0.1259006042       -2.6832456572
 O       -10.2505966692       -1.2584407731       -2.3876494561
 C        -8.4802735387        0.3082796136       -2.6853034739
 C        -8.3432103437        1.2831990731       -1.5019585726
 O        -8.4457337190        2.4801011572       -1.6748890397
 C        -8.4568150325        0.8232883132       -0.0290011582
 C        -7.1043009421        0.5916941546        0.7114875683
 C        -7.2857736762       -0.2564844072        1.9892213252
 O        -7.9330606269       -1.2727182897        1.9082386918
 C        -6.5667906164        0.1438031825        3.2918765320
 C        -6.5051325214        1.6836060496        3.4305613885
 O        -5.6104806399        2.2573377519        2.8313847620
 C        -7.6431479613        2.5049396859        4.0356084797
 C        -7.3008328718        4.0331223985        3.8267291964
 C        -7.1614760948        4.2970555794        2.3323238265
 O        -8.0079342565        3.9498021533        1.5622168758
 C        -5.8904978244        5.0739013256        1.7637606257
 C        -6.5750569368        6.5389985427        1.3142556214
 O        -7.2352569357        6.6591741019        0.3468219030
 C        -6.3755630198        7.8037048740        2.1857166379
 C        -7.5080726297        8.9381683610        2.1180668178
 C        -8.8970866925        8.3483864516        2.4914808981
 O        -8.9845903253        7.2614058842        3.0016518808
 C       -10.0928535747        9.2694248051        2.1064837249
 C       -10.6880574289        8.4554078784        0.8334414846
 O       -10.3055777603        8.5914703366       -0.3124391513
 C       -11.7962722071        7.4887464320        1.1145676787
 C       -12.4960003793        6.9846423700       -0.1305266590
 C       -11.5764177424        6.0598478998       -0.8848555690
 O       -10.8224254375        5.3516178458       -0.2176308556
 C       -11.3115289617        6.0174537704       -2.4366667623
 C       -10.0273364941        6.6729349111       -2.9187617108
 O        -8.9279904699        6.4137674807       -2.4353743022
 C        -9.9845630820        7.6518223482       -4.0976105248
 C       -11.1419584217        4.5359309574       -2.8624112330
 C       -12.4665458978        6.7645641422       -3.1480638541
 C       -11.1435729066        9.3564884462        3.2598916423
 C        -9.7475109584       10.7749827065        1.7324525565
 C        -4.8956094288        5.3581978413        2.8959539650
 C        -5.2707156936        4.4039459944        0.5068696386
 C        -7.3456714005       -0.4497136094        4.4347183224
 C        -5.1670168117       -0.5569301329        3.1979113353
 C        -7.6767019502       -0.9570009322       -2.5233468613
 C        -8.0341081033        0.9161232615       -4.0733829937
 C       -15.3336800584       -0.6389505321       -3.9865955825
 C       -16.2425466089        1.6915936606       -3.9175751519
 H       -17.1933596434        1.3204043745       -1.0266392471
 H       -16.0615224295        2.6562829291       -1.3729149353
 H       -15.7983123092        1.7043507826        0.0727154496
 H       -12.3340189825       -0.0908148710       -4.3989052151
 H       -12.7969484612       -0.4353497743       -2.7119600035
 H       -11.1267453364        1.5464439302       -2.0601589434
 H       -10.6779762087        1.6379689675       -3.6695335063
 H        -9.0375131033       -0.1377420157        0.1697127153
 H        -8.9262341738        1.5873385604        0.4724015632
 H        -6.6901956883        1.5182093966        0.9300991719
 H        -6.4388637682       -0.0001216709        0.0769322221
 H        -7.9023416568        2.2149622739        5.0101237201
 H        -8.5473543356        2.2468156328        3.4361411329
 H        -6.3930021313        4.2300669852        4.3806175219
 H        -8.0643793535        4.6110049606        4.3971120996
 H        -5.5185621761        8.2380226450        1.6833284225
 H        -6.0633671614        7.6867607378        3.2150121969
 H        -7.6541444253        9.2513345174        1.0935458077
 H        -7.2348724451        9.6193215787        2.9690299882
 H       -12.5370536376        8.0506472039        1.7638228930
 H       -11.3673752153        6.7104308304        1.7633524128
 H       -12.7885989085        7.8779813346       -0.7202312306
 H       -13.4234421458        6.4596285106        0.1389527903
 H       -10.6932193221        7.4165444839       -4.9746207081
 H        -8.9294321203        7.8565955872       -4.2949339348
 H       -10.3570934610        8.5637267957       -3.6488296298
 H       -10.2169161416        4.1279521629       -2.3231548587
 H       -10.9229435241        4.4702048525       -3.9452779767
 H       -12.0124953605        3.9680219200       -2.6658079750
 H       -12.2680874126        6.9345560972       -4.2153497244
 H       -12.5642642961        7.7341146537       -2.7406140449
 H       -13.4314841357        6.2640189304       -3.0653166982
 H       -10.6964085181        9.5894816684        4.2115538139
 H       -11.5090416981        8.3653722127        3.3890285621
 H       -11.9552715214       10.0516442555        2.9289540228
 H       -10.7545794088       11.1627241337        1.6407773392
 H        -9.3097736098       10.8468246915        0.6680296975
 H        -9.2250126938       11.3670863829        2.4850360597
 H        -5.4521452535        5.6351893011        3.7520967519
 H        -4.2113446105        6.1335258851        2.6594118547
 H        -4.2182418642        4.4730343586        3.0465702329
 H        -6.0119238496        4.1355130497       -0.2636902899
 H        -5.0089702968        3.3694158202        0.7477401993
 H        -4.4542181282        5.0011826309        0.0685751720
 H        -6.8408225248       -0.3288900155        5.4304863400
 H        -7.3972880742       -1.5850794227        4.2819548137
 H        -8.4086388949       -0.0578608149        4.3749129437
 H        -4.5231462038       -0.2542089475        2.4580142883
 H        -5.3799632984       -1.6326769993        2.9781411856
 H        -4.6096664527       -0.5050812787        4.1266804783
 H        -6.6949651236       -0.7749220824       -2.0632662794
 H        -7.4962518223       -1.5134111297       -3.4535305838
 H        -8.2226303662       -1.5963215221       -1.8097128450
 H        -7.0028280158        0.8170828538       -4.2969400703
 H        -8.4525586816        1.9315808752       -4.1160840860
 H        -8.5246940930        0.2496164316       -4.8007356532
 H       -14.6899749721       -0.7377503481       -4.8641158045
 H       -16.2579913346       -0.8363678015       -4.4186089305
 H       -15.1694164735       -1.5261961351       -3.3651627299
 H       -15.9960355030        1.7920438338       -4.9654844662
 H       -16.2205251989        2.6799335079       -3.4616934363
 H       -17.2773534468        1.2960671172       -3.7626454769
 Na       -8.5804544895        4.8828484325       -0.6563567526
