117

 C       -16.0435675790        1.6282043220       -0.8115290924
 C       -15.3948652798        0.5485854141       -1.5742381974
 O       -14.7374494588       -0.2945398060       -1.0361589165
 C       -15.2595071900        0.7950515644       -3.1305509186
 C       -13.7698863016        1.1914906484       -3.2803046633
 O       -13.5368295681        2.3824638042       -3.5072525081
 C       -12.6212256487        0.1885040607       -2.8240484664
 C       -11.2513395570        0.9561522627       -2.7072415991
 C       -10.1601067685       -0.0746027048       -2.2537705794
 O       -10.5548307199       -1.1265117207       -1.8153326796
 C        -8.6145029959        0.2411443668       -2.4681194576
 C        -8.3919377408        1.3819523597       -1.4179140619
 O        -8.0014481262        2.4934608240       -1.7177443890
 C        -8.5761758325        0.9926667878        0.0151283906
 C        -7.2808940635        0.5199964356        0.7775121647
 C        -7.6787059990       -0.0293027050        2.1131875115
 O        -8.5456278606       -0.8370362836        2.1540281212
 C        -6.8538416515        0.2577065114        3.4554157114
 C        -6.4953670033        1.7095125840        3.4025554152
 O        -5.6344148999        2.0653658855        2.6431977422
 C        -7.3756974910        2.7363049966        4.2070306408
 C        -6.9624168040        4.0786575376        3.7676795322
 C        -6.9262866038        4.1689965097        2.2086468103
 O        -7.8019982376        3.7865380762        1.4279877368
 C        -5.7698219492        5.0610191784        1.6111916463
 C        -6.6343172276        6.3584740385        1.3005653167
 O        -7.3951593929        6.3062694117        0.3006761125
 C        -6.5040978056        7.5944169241        2.1307476763
 C        -7.5666014180        8.6503699070        1.7983989223
 C        -8.9481807736        8.4035239298        2.2918574892
 O        -9.2881302836        7.4514992883        2.9685600021
 C       -10.1634775301        9.3862980417        1.8092015974
 C       -10.9353482822        8.6039281024        0.6253868061
 O       -10.9224383029        9.0894954029       -0.4768970842
 C       -11.7271227521        7.2979851701        1.0130597335
 C       -12.3485055801        6.6825790620       -0.2805056519
 C       -11.1976225211        5.9477734297       -1.0130883322
 O       -10.5043267839        5.1801043490       -0.3958342248
 C       -11.0827233764        6.0080863417       -2.5896033964
 C        -9.6219664170        6.6685425380       -2.7891907837
 O        -8.6002283818        6.1544710118       -2.4685861465
 C        -9.5950282344        7.8574736565       -3.8098630498
 C       -10.8776098488        4.5348912315       -3.1257135815
 C       -12.1509631834        6.7021578328       -3.4691562236
 C       -11.2401009826        9.4553414347        2.9296289657
 C        -9.5938527279       10.7880039811        1.3705891402
 C        -4.5201145948        5.3566475417        2.5126708823
 C        -5.2089658620        4.5139710447        0.2676391979
 C        -7.7181782266       -0.0609045688        4.6225340737
 C        -5.6101279739       -0.6422632729        3.4723654309
 C        -7.8943837830       -1.1274158805       -2.2963265909
 C        -8.3201041470        0.7913724890       -3.9333277223
 C       -15.4622042877       -0.6231380306       -3.8339017712
 C       -16.3007324663        1.8660073734       -3.6900977000
 H       -17.0530356076        1.9093043244       -1.1533359270
 H       -15.3637026095        2.5122086841       -0.9752107701
 H       -16.2038297622        1.3959595843        0.2238394693
 H       -12.5133940687       -0.5833965034       -3.6144933316
 H       -12.9329814728       -0.2399618705       -1.8614271436
 H       -11.2867680889        1.8959791357       -2.1887872897
 H       -10.9400596401        1.2765270276       -3.6604617282
 H        -9.2567968484        0.2807909369        0.2359828393
 H        -8.9931952786        1.9153171484        0.5023965412
 H        -6.5585821874        1.2951767054        0.8588773815
 H        -6.8941936242       -0.3570859703        0.2721918929
 H        -7.3100184339        2.5617292618        5.2934571669
 H        -8.4091554477        2.5909868155        4.0162676369
 H        -5.9602633753        4.2353428163        4.2072632823
 H        -7.6437162025        4.8293029736        4.1888307669
 H        -5.5033551585        8.0503719815        2.0562991344
 H        -6.5639125999        7.1787405438        3.0954358417
 H        -7.6211590662        8.5803534911        0.6978398562
 H        -7.2792454751        9.5975415319        2.3165634649
 H       -12.3938215803        7.5139671699        1.8509857950
 H       -10.9477825269        6.5595806140        1.3985754775
 H       -12.7390792882        7.4739255913       -0.8747932473
 H       -13.1337198747        5.9332291054        0.0250804736
 H        -9.7885505830        7.4674416490       -4.7890131848
 H        -8.6038401585        8.3527086453       -3.7299536552
 H       -10.5043863073        8.5140814089       -3.5741095288
 H       -10.2169755919        3.9697522513       -2.5355614601
 H       -10.4814445916        4.4853781079       -4.1422931675
 H       -11.8825960228        4.0233428701       -3.1644951698
 H       -11.7972902219        6.7869282355       -4.4515773391
 H       -12.6215318428        7.6693332269       -3.1532780497
 H       -12.9433481403        5.9673879566       -3.5836884280
 H       -10.7598990113        9.9374173204        3.7846095830
 H       -11.5043771779        8.4178236963        3.1793755504
 H       -12.0525690006       10.0407173885        2.6696854467
 H       -10.3570127290       11.4778932300        0.9332145841
 H        -8.8927226995       10.5283047313        0.6280824905
 H        -9.1112831654       11.3485657907        2.1890533689
 H        -4.8351663254        5.8612928019        3.4652671543
 H        -3.9384936127        6.1157098429        2.0151180780
 H        -3.9969832979        4.4758193948        2.6961128670
 H        -5.8949675546        4.0221320152       -0.4371560525
 H        -4.5011207598        3.7002149330        0.4932378701
 H        -4.6971801930        5.2521495676       -0.3687106601
 H        -7.1738815564        0.1642393413        5.6172333731
 H        -8.1441053747       -1.0865058612        4.4720477995
 H        -8.5769651736        0.6962060275        4.5821923712
 H        -5.1184702534       -0.6126497209        2.4768553580
 H        -5.8538499177       -1.6437450780        3.6436660162
 H        -4.8455275211       -0.3029641096        4.1262348822
 H        -6.8452531260       -1.0611431239       -1.9246426633
 H        -7.8071001592       -1.5689000852       -3.2993717563
 H        -8.4053366154       -1.8443741754       -1.6702381524
 H        -7.2339195728        1.0685569816       -3.9257638199
 H        -8.9648002008        1.5921429960       -4.1972240714
 H        -8.5371647510       -0.0099534536       -4.5936786029
 H       -15.8815958090       -0.5583375169       -4.8189918452
 H       -16.1534773298       -1.2607132618       -3.2278977494
 H       -14.5702944116       -1.2164926982       -3.9285346388
 H       -16.0152801507        2.2613800464       -4.6521744069
 H       -16.3826623771        2.6987482336       -3.0163873817
 H       -17.2340668780        1.3830594050       -3.7337567055
 Na       -8.3009181412        4.6881345436       -0.7607321996
