117

 C       -16.1374490730        1.6938037402       -0.6937600810
 C       -15.3223205941        0.6661168597       -1.5132091042
 O       -14.8242816333       -0.3427500904       -0.9807611209
 C       -15.2677292899        0.7574173708       -3.0820831731
 C       -13.7837958631        1.2385802840       -3.2529414665
 O       -13.5266126001        2.4129916952       -3.5208147668
 C       -12.6676599930        0.3055650063       -2.8844585620
 C       -11.2574505922        0.9045874786       -2.7511747464
 C       -10.2323550937       -0.1792274719       -2.2816389163
 O       -10.5263760466       -1.1172755532       -1.6201079335
 C        -8.6707605970        0.1647050200       -2.4952247477
 C        -8.2643019912        1.2688484875       -1.4274834185
 O        -8.0017773166        2.4181525953       -1.8224134165
 C        -8.5987431294        0.9133084009        0.0251170736
 C        -7.3132400104        0.5528048201        0.8282042583
 C        -7.8227408089       -0.1451648447        2.1338480946
 O        -8.8037909238       -0.8059177976        2.2500445136
 C        -6.9688408692        0.2062035219        3.4574434599
 C        -6.4510460753        1.6667720975        3.4047559454
 O        -5.4963295459        2.0846975751        2.6972686225
 C        -7.2679319693        2.7265506015        4.1321097680
 C        -6.9532819124        4.1733659552        3.6818180716
 C        -6.8207227082        4.2436907151        2.1377167496
 O        -7.8181881256        3.8490607512        1.5989568312
 C        -5.7052172020        5.0974413524        1.4728277366
 C        -6.6268255953        6.3795141688        1.1698957730
 O        -7.3796421216        6.4189405797        0.2729078808
 C        -6.5253499683        7.6600195658        2.1267431165
 C        -7.5655884430        8.8168236083        1.7942900461
 C        -9.0092136611        8.4348503929        2.2682131953
 O        -9.2729497031        7.4445792495        2.9425303218
 C       -10.1989697765        9.3047907793        1.7372709360
 C       -10.9702651451        8.6341120956        0.5736343307
 O       -11.0442501357        9.0777652693       -0.5450916783
 C       -11.6162003901        7.3583259388        0.9096907771
 C       -12.2771309848        6.6719253340       -0.3248777043
 C       -11.2307324471        5.8621966050       -1.1073278551
 O       -10.5490162640        5.1356192215       -0.4022822673
 C       -10.9352583797        5.9343861497       -2.6529152123
 C        -9.4942420845        6.6431549357       -2.9299460176
 O        -8.4353618432        6.1601079360       -2.5530193988
 C        -9.4384565330        7.9968234866       -3.6260590496
 C       -10.8814375207        4.4787781963       -3.0793955589
 C       -12.0531232611        6.6290207832       -3.3727809924
 C       -11.1948190321        9.5353399278        2.9246197639
 C        -9.6781129579       10.6999817739        1.3077185874
 C        -4.5757105894        5.4174894901        2.4632616590
 C        -5.0833981152        4.4729146801        0.2560091226
 C        -7.8070973470       -0.1170086984        4.8429492345
 C        -5.6886141614       -0.7154725118        3.4289150499
 C        -7.8029780618       -1.0300696928       -2.2461889404
 C        -8.3083168906        0.7767174189       -3.9105104945
 C       -15.6212542389       -0.6272753508       -3.8194012142
 C       -16.2525741005        1.7690570849       -3.6604284357
 H       -17.1378727468        1.7826729920       -0.9963876968
 H       -15.6634774134        2.7223700386       -0.7191385769
 H       -16.2252602487        1.3325350014        0.2899384297
 H       -12.6983729187       -0.5309778726       -3.5818717573
 H       -12.9176619685       -0.0319537047       -1.8404690656
 H       -11.2649333450        1.6132394809       -1.9153671657
 H       -10.8825010525        1.5150371533       -3.5721011757
 H        -9.2538561367        0.0621423467        0.1643063950
 H        -9.1368136386        1.7595211036        0.4390950599
 H        -6.8162159900        1.5072344159        1.1225098528
 H        -6.6590554030       -0.0058566105        0.1621810324
 H        -7.1536543545        2.5263052912        5.2253325028
 H        -8.3203993644        2.5315469457        3.9712205184
 H        -6.1426450590        4.5702793802        4.2768339114
 H        -7.8473319062        4.7267329067        3.8954577762
 H        -5.5464731405        8.1146553023        1.9593108976
 H        -6.5084695866        7.4195577118        3.1976843288
 H        -7.5770178936        8.9690167930        0.6903948171
 H        -7.2502014095        9.5921860366        2.4564891707
 H       -12.4493658370        7.7526590887        1.5578908285
 H       -10.9939198441        6.6860353117        1.5739811130
 H       -12.6796808713        7.5154398529       -0.9100242853
 H       -13.0407250718        6.0861570465        0.1370853298
 H        -9.7768604780        7.8324446349       -4.6334265503
 H        -8.3537057440        8.3113626957       -3.6154955152
 H       -10.1343885708        8.6785837339       -3.1831301022
 H       -10.0718692896        3.7984204927       -2.5597610616
 H       -10.6310483256        4.4130888648       -4.1879980435
 H       -11.8676028291        4.0261311053       -2.9888469505
 H       -11.8914650072        6.5325492789       -4.4547746592
 H       -12.1926679433        7.6643724887       -3.1453331245
 H       -12.9676360251        6.1080299169       -3.1786114641
 H       -10.6762263513       10.0413997010        3.7489226467
 H       -11.6867050155        8.5947945906        3.1885378013
 H       -11.9407111049       10.2947766188        2.5618718970
 H       -10.5804399768       11.3058584306        1.0229599720
 H        -9.0202427632       10.6440918546        0.4325410996
 H        -9.1801908226       11.2777859820        2.1730381848
 H        -4.8755754774        5.9918702829        3.3135058579
 H        -3.7705238136        5.9998964611        1.9308245864
 H        -4.2713321605        4.4212517146        2.8072680474
 H        -5.7927098302        3.9472705073       -0.3602461884
 H        -4.2970349453        3.6996918001        0.5327634660
 H        -4.6209801695        5.1645076742       -0.4931117398
 H        -7.2649781476        0.1246043569        5.7522831963
 H        -8.1537873894       -1.1430608180        4.7275667408
 H        -8.7004490438        0.5148991181        4.8519387412
 H        -5.1635443115       -0.6543902437        2.4545090417
 H        -5.9386225121       -1.7464113617        3.5738259482
 H        -4.9329383243       -0.4406936511        4.1624473761
 H        -6.7969742601       -0.8156747491       -1.9081340576
 H        -7.7110094161       -1.6146380944       -3.1653984587
 H        -8.2648068244       -1.7169491074       -1.4858994845
 H        -7.2332917434        0.8179090548       -3.8527076120
 H        -8.7211203066        1.7684285893       -4.0894053004
 H        -8.6983910933        0.1060382747       -4.6718571637
 H       -16.2594088638       -0.4571330468       -4.6789654298
 H       -16.1767175506       -1.2998858008       -3.1306634729
 H       -14.7686257006       -1.1794189788       -4.1973108654
 H       -15.7761201139        2.1957181161       -4.5697746102
 H       -16.3724608071        2.6172403699       -2.9594674510
 H       -17.2210349124        1.3069687885       -3.9084184471
 Na       -8.3401459733        4.6141390140       -0.8055857049
