117

 C       -16.1969600715        1.6669301321       -0.6135056744
 C       -15.5014242061        0.5752833813       -1.4722788575
 O       -14.9405313721       -0.3261363232       -0.8757050995
 C       -15.2930870367        0.7912929197       -3.0581905884
 C       -13.7413842766        1.3374418299       -3.2133369231
 O       -13.5696804380        2.4617427022       -3.5587772690
 C       -12.6605724140        0.2208450957       -2.9282669469
 C       -11.2988655913        0.7790655779       -2.7829855885
 C       -10.2166966152       -0.1364534471       -2.2974808794
 O       -10.4665416510       -1.0623818567       -1.5344281734
 C        -8.6342771054        0.1154558255       -2.5371483183
 C        -8.4129428184        1.2409464912       -1.4674721663
 O        -7.9986732757        2.3639788471       -1.8213376670
 C        -8.6555099923        0.8588231017        0.0117490591
 C        -7.4363096456        0.5063973420        0.9525778807
 C        -7.9369536897       -0.0457560651        2.3300005146
 O        -8.9791939248       -0.7443820404        2.3015366034
 C        -6.9715833682        0.1619354770        3.4887446493
 C        -6.4441610250        1.6780633430        3.4618048882
 O        -5.4304100260        1.9319245952        2.8116862775
 C        -7.2976767044        2.7823623584        4.1705637652
 C        -6.9339668898        4.2369378530        3.7294987997
 C        -6.9287375932        4.3999332980        2.1961294722
 O        -7.7211048374        3.8465792392        1.4461762368
 C        -5.7471352335        5.2379289537        1.5025993043
 C        -6.5136986044        6.5935867495        1.0328559179
 O        -7.3808193261        6.5727674109        0.1922800921
 C        -6.5023502644        7.7076149617        2.0867771186
 C        -7.5660320879        8.8058699084        1.7885558001
 C        -9.0477969508        8.3590858357        2.1599745435
 O        -9.1834875417        7.4285193919        2.9062193927
 C       -10.2188566867        9.3678989207        1.6898697312
 C       -10.9851132888        8.6631266539        0.5216642676
 O       -11.0088886302        9.1789984022       -0.5949813377
 C       -11.7869039840        7.2492761632        0.8246019864
 C       -12.2369942398        6.6418679466       -0.5124246895
 C       -11.0383351639        5.8627140663       -1.0835092558
 O       -10.5045213581        5.0019070822       -0.3643272065
 C       -10.8167170357        5.8913686522       -2.6861129499
 C        -9.4484912696        6.6509518626       -2.9704131870
 O        -8.4017254530        6.0584656013       -2.6070686522
 C        -9.3523692738        8.0950569167       -3.4544660925
 C       -10.7749090602        4.4022512749       -3.1182155142
 C       -11.9990743808        6.6554771662       -3.3113745540
 C       -11.1168738875        9.6463736131        2.9696702581
 C        -9.7422002419       10.7571939182        1.1627369880
 C        -4.5364324854        5.5480043702        2.4722294084
 C        -5.1819134019        4.4697910125        0.2354357778
 C        -7.7273732475       -0.1494259079        4.7729227265
 C        -5.7554616264       -0.8179931555        3.4178584444
 C        -7.7108940754       -1.0423900000       -2.1769989436
 C        -8.3673373195        0.7367652179       -3.9418953061
 C       -15.5790950965       -0.5841860054       -3.6445992529
 C       -16.1960166427        1.8636301141       -3.6694283973
 H       -17.2662866584        1.7578306872       -0.6514328581
 H       -15.7810713692        2.5802141052       -0.8117484377
 H       -16.0120017489        1.3561635236        0.4291613364
 H       -12.6358224880       -0.3138265860       -3.8730579038
 H       -12.9808867430       -0.4255616612       -2.1049602674
 H       -11.2356114416        1.6579819024       -2.0865920260
 H       -10.9743658638        1.2125210457       -3.7985844571
 H        -9.3990407421       -0.0673413936        0.1481117076
 H        -9.1842592382        1.6821720724        0.4172770832
 H        -6.7886481667        1.4166627247        1.0152514300
 H        -6.8604084759       -0.2745552821        0.3756112836
 H        -7.1256376184        2.5585121922        5.2238804870
 H        -8.4054145802        2.5838854255        4.0357167725
 H        -5.9158846531        4.3843769871        4.0101293960
 H        -7.5767335402        4.9528232689        4.2408593866
 H        -5.5303523436        8.1867591140        2.1888144035
 H        -6.6691565999        7.2744567327        3.1312807823
 H        -7.5645141116        9.0900283230        0.7480899892
 H        -7.2919958309        9.5288154165        2.5327539845
 H       -12.5916002107        7.3976694609        1.5780859530
 H       -11.1094387426        6.5266440491        1.2405097074
 H       -12.6032735329        7.4752230403       -1.1580113881
 H       -12.9868380516        5.9432874914       -0.2334224801
 H        -9.9585745590        8.1824103585       -4.3911379514
 H        -8.3439030023        8.2597763706       -3.6633170514
 H        -9.7528834197        8.7238311636       -2.7164832596
 H        -9.8975244612        3.7760533534       -2.7966689629
 H       -10.7196711463        4.3956180598       -4.2485893524
 H       -11.7328977344        3.8936189897       -2.8802566012
 H       -12.0386340693        6.4754418263       -4.4107394069
 H       -11.8489703611        7.6889836504       -3.2159286525
 H       -12.9784302407        6.4354485400       -2.9000637450
 H       -10.6233178535       10.3070080932        3.6927116956
 H       -11.4479292976        8.6718199866        3.3107113610
 H       -12.0259244210       10.2389129694        2.5820274545
 H       -10.6826428230       11.2948177632        1.0143072837
 H        -9.1968701367       10.7614750632        0.1275996513
 H        -9.1626667388       11.3192370787        1.9141043005
 H        -4.6962554276        6.2190209019        3.2933332142
 H        -3.6917934977        5.9030416741        1.8555908489
 H        -4.3554041702        4.5012113679        2.8963730303
 H        -5.9735375129        4.0774633269       -0.4448495925
 H        -4.4683220282        3.6648345085        0.4700591268
 H        -4.6436922081        5.1266675727       -0.4677953538
 H        -7.2180760179        0.1437103192        5.6057608975
 H        -7.9700689834       -1.1674001054        4.7056459142
 H        -8.6204621722        0.3696507700        4.7416057129
 H        -5.1642386396       -0.6247733892        2.5599130476
 H        -6.1359602541       -1.8930928538        3.3313589700
 H        -5.0699895786       -0.8001338146        4.3022106325
 H        -6.6708991353       -0.8062728632       -2.0387006547
 H        -7.7972744911       -1.8646410425       -2.8866572412
 H        -8.0813250778       -1.4518738912       -1.2224707901
 H        -7.3280380666        0.7203006743       -4.0964589618
 H        -8.7066340020        1.7977320348       -4.0011905436
 H        -8.9968003192        0.1544082800       -4.6405389662
 H       -16.2383917865       -0.5464718843       -4.5374630565
 H       -16.0569387951       -1.2224609734       -2.9366846745
 H       -14.6443474904       -1.0893394787       -4.0004562649
 H       -15.8347531491        2.0225521353       -4.7110193041
 H       -15.9740458577        2.8189861609       -3.1280301660
 H       -17.3056659203        1.5637212037       -3.6770104443
 Na       -8.3335613414        4.3850188368       -0.8148035689
