117

 C       -16.2040482472        1.8509710697       -0.4570102032
 C       -15.6095126750        0.7651294631       -1.2981886840
 O       -15.0275973322       -0.1643146773       -0.7501332068
 C       -15.3879710103        0.8116781581       -2.8559304193
 C       -13.8642345878        1.1416785038       -2.9212862321
 O       -13.4493050182        2.3237028265       -2.9107950107
 C       -12.8648259616       -0.0034377398       -2.8676148929
 C       -11.4422603558        0.3205442948       -3.3271165404
 C       -10.3811035272       -0.4369583302       -2.4094329201
 O       -10.7235360537       -1.2878783764       -1.6480741163
 C        -8.8082977517        0.0658159315       -2.4128103833
 C        -8.5692711694        1.1309135925       -1.3399439941
 O        -8.0839513554        2.1713494047       -1.6703647970
 C        -8.9472476326        0.8271531184        0.1097382670
 C        -7.8498367302        0.3888573070        1.0345458183
 C        -8.2148268327        0.3275569846        2.4254731312
 O        -9.4079343018        0.3569711023        2.7074190143
 C        -7.1193926508        0.1365067551        3.6043816112
 C        -6.4194309088        1.5373612562        3.6971934546
 O        -5.2661701805        1.6955709624        3.4070067072
 C        -7.3155909016        2.8013261648        4.0383742687
 C        -6.6377259986        4.1170156509        3.5779023773
 C        -6.7910195346        4.4361106610        2.0544165376
 O        -7.5740952813        3.8733666830        1.3391813601
 C        -5.6661040085        5.4763907053        1.4524929921
 C        -6.6451494652        6.7372154496        1.0827875063
 O        -7.4309591931        6.4962749352        0.1779680661
 C        -6.4972071016        8.1800594898        1.7115335227
 C        -7.6145878268        9.1249083689        1.3523498978
 C        -8.9760132799        8.5801112200        1.7230727649
 O        -9.0520454029        7.4985150056        2.2878664437
 C       -10.2517581526        9.4156903606        1.4139394299
 C       -10.9659306423        8.6598948137        0.2864984456
 O       -10.9164492052        9.0387881326       -0.8603308084
 C       -11.6390341295        7.3508368373        0.6088692912
 C       -12.0577986002        6.5436256085       -0.5856869090
 C       -10.9170595501        5.7812197371       -1.1378793501
 O       -10.3409776319        5.0447949619       -0.4010042409
 C       -10.5353362567        5.8482385707       -2.6700804612
 C        -9.1109581306        6.4193629751       -2.7179579858
 O        -8.1824271160        5.6813597962       -2.6078589909
 C        -8.9263571454        7.9566607159       -2.9528399448
 C       -10.5570939236        4.3707086153       -3.1230043167
 C       -11.4995545347        6.7466760850       -3.5250764541
 C       -11.1732409160        9.3575919789        2.6752362102
 C        -9.9879566557       10.8892978452        0.9596616131
 C        -4.5504164223        5.8695654051        2.4819208557
 C        -5.0998232401        4.7919174828        0.2062409124
 C        -7.7653831557       -0.2595860387        4.9465187228
 C        -6.0907009070       -0.8833392283        3.1237269690
 C        -8.0948597990       -1.2108633391       -2.0141031514
 C        -8.3239274516        0.3952690247       -3.8381857916
 C       -15.7964084193       -0.6022251276       -3.5166293680
 C       -16.0946986066        2.0011424639       -3.4846694773
 H       -17.1860601847        2.1117226654       -0.7934172064
 H       -15.5924400801        2.7792513736       -0.4405401955
 H       -16.2536173872        1.5148989173        0.5136907502
 H       -13.3125945406       -0.7807258518       -3.5004932635
 H       -12.8567765235       -0.4187928964       -1.8727365823
 H       -11.3152207335        1.4416607543       -3.2129822453
 H       -11.2690146583       -0.1014952144       -4.3346835204
 H        -9.6798591822        0.0701975286        0.0759287072
 H        -9.2898255830        1.8669406733        0.5510967428
 H        -6.9438966082        0.9955997948        0.8481852342
 H        -7.3997079965       -0.5895712883        0.7257473972
 H        -7.5623662381        2.8716799138        5.1080155789
 H        -8.2196222779        2.6335679500        3.4133918819
 H        -5.5968533838        4.0888222233        3.8919368372
 H        -7.1604651941        4.8864600881        4.1281038380
 H        -5.5060662364        8.6350850725        1.4284860797
 H        -6.4277552256        7.9499840513        2.7837430802
 H        -7.5537755811        9.2178777580        0.2762856887
 H        -7.5983710274       10.1638630907        1.7428478548
 H       -12.4325250879        7.5813585236        1.3158839818
 H       -10.9080739605        6.7654790017        1.1885861676
 H       -12.4520249032        7.1992165956       -1.3053330069
 H       -12.8370616362        5.8061728827       -0.2569270394
 H        -8.9884003972        8.1030810628       -3.9596114265
 H        -7.9335545564        8.2819379650       -2.6689946437
 H        -9.6337022429        8.5193923564       -2.3546992713
 H       -10.1495595014        3.7526734710       -2.2891635628
 H       -10.0106019300        4.1303996289       -4.0720841225
 H       -11.5968173359        3.9393294872       -3.2050158565
 H       -11.2929002615        6.6751444407       -4.5406941809
 H       -11.4528365109        7.8306618026       -3.2619558552
 H       -12.5164713213        6.4228523979       -3.3324130271
 H       -10.6070602274        9.7470411106        3.5731477309
 H       -11.5610876211        8.3141435034        2.9355801995
 H       -12.0294352970        9.9356994087        2.4121109657
 H       -10.8886417260       11.4889933715        0.5940132594
 H        -9.3603063552       10.9037410069        0.0793632924
 H        -9.3187884668       11.4350953816        1.6743634870
 H        -5.2095541603        6.4670697866        3.2102967271
 H        -3.7433793934        6.3761676438        1.9612443874
 H        -4.1402387685        5.0412574519        3.0132501889
 H        -5.2122312165        5.4047795617       -0.6924649135
 H        -5.4681144840        3.7886571728       -0.0393520348
 H        -4.0687097819        4.4404419242        0.2621456355
 H        -6.9356934937       -0.2677539251        5.5982185597
 H        -8.1924796234       -1.2054275519        4.8919303601
 H        -8.4676100190        0.4799421528        5.1784408035
 H        -5.7917994902       -0.7034975699        2.0494461335
 H        -6.4413518882       -1.8829031023        3.2550982918
 H        -5.2153508425       -0.8801478740        3.7701005249
 H        -7.0578043514       -1.0414439629       -1.6431435965
 H        -8.0729543016       -1.9395269019       -2.8306935929
 H        -8.6001699352       -1.7465574996       -1.2410625830
 H        -7.2389509488        0.7161510349       -3.8090779186
 H        -8.9004764159        1.2594386137       -4.1227254367
 H        -8.4363153011       -0.4670529433       -4.4775801074
 H       -15.0226556637       -0.9888398658       -4.1569482349
 H       -16.7210210258       -0.4136310955       -4.1004274351
 H       -15.9839995472       -1.2850946015       -2.7005471861
 H       -15.5255361977        2.3456442734       -4.3940600233
 H       -16.1005712781        2.8217221956       -2.7125053813
 H       -17.0958667524        1.7033150365       -3.8066475787
 Na       -8.0390795348        4.4000404586       -0.7494054085
