117

 C       -16.2269045878        1.9658025442       -0.3790767390
 C       -15.6413518138        0.8065364290       -1.1930056971
 O       -15.1711388919       -0.1567325403       -0.6337479104
 C       -15.3692294630        0.9371400310       -2.7830037279
 C       -13.7870263136        1.1470328322       -2.8441560501
 O       -13.2774746809        2.2591293200       -2.7798274947
 C       -12.9182996266       -0.1364679944       -2.9585887360
 C       -11.4404790530        0.1791825814       -3.1889070191
 C       -10.4746733157       -0.6647871046       -2.2433829348
 O       -10.7994197212       -1.5080473788       -1.4559817236
 C        -8.9752022277       -0.2514198801       -2.3797780300
 C        -8.9543225004        1.0082461263       -1.3868941712
 O        -8.4355825375        2.0362506185       -1.6758894823
 C        -9.3484765181        0.8358763890        0.0458337711
 C        -8.1756331632        0.4271753292        1.0168562043
 C        -8.3956586442        0.6394303447        2.4886647188
 O        -9.4113924366        1.1600604594        2.9493330245
 C        -7.2642600160        0.2367816995        3.4963287091
 C        -6.4238100397        1.5703208669        3.7319759492
 O        -5.2543230575        1.6002374857        3.5595233401
 C        -7.2648473348        2.9103062443        4.1050286745
 C        -6.4764470728        4.1541364063        3.6655409817
 C        -6.4635862617        4.4354175282        2.1568183418
 O        -7.1774384017        3.7127592442        1.4509341526
 C        -5.6838346156        5.6344024441        1.5353910299
 C        -6.6712961863        6.6790908823        0.9861341034
 O        -7.5135211478        6.2294156030        0.2166279862
 C        -6.5325654781        8.0937655571        1.3808594984
 C        -7.6425268661        9.0095262303        0.9607613711
 C        -8.9336707723        8.5758716147        1.6924453616
 O        -8.8928341103        7.5808526103        2.3766428977
 C       -10.2466477011        9.3754913631        1.3797478303
 C       -11.0922476770        8.6170197747        0.1809498699
 O       -10.9252739627        9.0491271084       -0.9454921888
 C       -11.9829896805        7.3432909516        0.4712071537
 C       -12.1002428294        6.3149101989       -0.7152528731
 C       -10.8030404150        5.7797139208       -1.1652053855
 O       -10.1570337575        5.1649716883       -0.3982492935
 C       -10.3166678087        5.8757201265       -2.7885566101
 C        -8.8371240900        6.2591317412       -2.9573681496
 O        -7.9536439673        5.5277632453       -2.6592883888
 C        -8.5608952727        7.7194340704       -3.4216434698
 C       -10.3402064586        4.3915101148       -3.2542935775
 C       -11.2206832127        6.7748564870       -3.6117510757
 C       -11.0405261465        9.4737741661        2.7083065013
 C        -9.9771603052       10.8591696472        0.9145058537
 C        -4.6639124622        6.1934318423        2.5706886114
 C        -5.0037152765        5.0969279814        0.3210633064
 C        -7.8204859449       -0.0968365453        4.9551558875
 C        -6.2789969306       -0.8753411723        3.0787982237
 C        -8.0344678277       -1.3580775878       -1.9541300615
 C        -8.5139317279        0.4010788268       -3.7389993910
 C       -15.8036008746       -0.4685712630       -3.4365201181
 C       -16.0217897257        2.1789581966       -3.3770457696
 H       -17.0441947025        2.5014424856       -0.9462340755
 H       -15.3871251729        2.6769886731       -0.3409733114
 H       -16.4838663310        1.7652378753        0.6531091633
 H       -13.2657030006       -0.7845932842       -3.7831587590
 H       -13.1427339778       -0.7298398025       -2.0410425061
 H       -11.2096242370        1.1768583425       -3.0382574203
 H       -11.2405402906       -0.1913147567       -4.1871428825
 H       -10.0591071617        0.0567968105        0.2389236581
 H        -9.6752879666        1.8366885445        0.3798003058
 H        -7.2395267050        0.9654354597        0.8640505999
 H        -7.8174722327       -0.5670839486        0.8051844857
 H        -7.3374199075        2.8730592261        5.1591457020
 H        -8.2565226467        2.9173561436        3.6080873012
 H        -5.4537263300        4.0758590502        4.0101450880
 H        -6.9631784468        5.0101347040        4.1690489784
 H        -5.5755408322        8.4376874764        1.0990942421
 H        -6.5284816462        8.1564612232        2.4855466412
 H        -7.9412277347        9.2274035665       -0.0686258403
 H        -7.3524325442       10.0367354014        1.2701143032
 H       -13.0377989372        7.6304944841        0.8029725715
 H       -11.4761369081        6.8235587756        1.3131941052
 H       -12.7037212552        6.7307959239       -1.5137622532
 H       -12.6559388373        5.4763273339       -0.2693389025
 H        -8.8524485954        7.7704491396       -4.4775502676
 H        -7.4599138447        7.9033326644       -3.4588278872
 H        -9.0435396293        8.5113974351       -2.7537741475
 H        -9.4751784575        3.8287925172       -3.0420102822
 H       -10.3695144621        4.4048197881       -4.3250700287
 H       -11.1973552279        3.7767258610       -2.9232547355
 H       -10.7911961215        6.9973699367       -4.5780451860
 H       -11.3885055039        7.7464747733       -3.1074596766
 H       -12.1677948662        6.2609657428       -3.8437288387
 H       -10.8291820413       10.3886662282        3.2370290140
 H       -10.7281807922        8.6994270038        3.3963818681
 H       -12.0739319094        9.4342084122        2.5199347348
 H       -10.9093170931       11.4260619494        0.8864887081
 H        -9.5307180765       10.9698067982       -0.0520052393
 H        -9.3470445514       11.4603259939        1.5330165016
 H        -5.2317975691        6.4119799204        3.5171883973
 H        -4.1945885456        7.0416390657        2.1925557237
 H        -3.9480214081        5.4309103359        2.7092646322
 H        -4.0988532974        5.6573716835        0.0125335650
 H        -5.5587636352        5.1296735778       -0.5996029723
 H        -4.6857407709        4.0691656015        0.3821362609
 H        -6.9435418539       -0.1975564202        5.6900560755
 H        -8.2989785336       -1.1169527736        4.9405585689
 H        -8.5731664197        0.7426369305        5.1121351536
 H        -5.8937276752       -0.6289478507        2.1091954215
 H        -6.7220951059       -1.8716990569        3.0068625570
 H        -5.4291453187       -0.9339953239        3.7385205591
 H        -7.0116383881       -1.0566013545       -1.6948993271
 H        -7.9267781738       -2.0487759467       -2.7955407328
 H        -8.4238720691       -1.9351080498       -1.1511326154
 H        -7.4574157820        0.5918251959       -3.6441629433
 H        -9.1265495389        1.2790613006       -3.9331435608
 H        -8.5180627236       -0.3235560920       -4.5295263776
 H       -15.9148857306       -0.3650178781       -4.5221870740
 H       -16.7082962603       -0.7714027009       -2.9515415089
 H       -15.0764187690       -1.2075225972       -3.1148450165
 H       -16.1294338786        2.0051012731       -4.4092781187
 H       -15.3516084975        2.9966373084       -3.2336595716
 H       -16.9525296569        2.4388213352       -2.9298479563
 Na       -8.1443249358        4.1750454556       -0.7331411988
