117

 C       -16.2079996073        1.9669575168       -0.3887078110
 C       -15.5495823368        0.8380821774       -1.1456770998
 O       -15.3066897518       -0.2140801188       -0.5113958974
 C       -15.3096637364        0.9519142995       -2.7203000729
 C       -13.7553100843        1.0608279641       -2.8953173752
 O       -13.2345044888        2.2042240403       -2.8229019780
 C       -12.8849255543       -0.2123330798       -3.0129187574
 C       -11.4515755019        0.1061549288       -3.0786725816
 C       -10.5429567568       -0.7096733964       -2.2473387214
 O       -10.8731137044       -1.5833982831       -1.4565509339
 C        -8.9844229181       -0.2338105703       -2.3276179598
 C        -8.8575397952        0.9898393905       -1.2384292169
 O        -8.5709781492        2.0694747647       -1.7393257857
 C        -9.3683960633        0.8438379420        0.2082073945
 C        -8.2090463150        0.4304757000        1.0428203028
 C        -8.4480256916        0.7373084290        2.5503456042
 O        -9.4875231695        1.3283627449        2.8667313637
 C        -7.3226345634        0.3995214947        3.5768345775
 C        -6.4465000417        1.6731316995        3.7139257472
 O        -5.2148355262        1.6274256057        3.5593657781
 C        -7.1248802770        2.9554991337        4.1701570592
 C        -6.3719592945        4.1049708821        3.6126714360
 C        -6.5320337433        4.3572718423        2.1254299237
 O        -7.0776155057        3.6113266140        1.3872290128
 C        -5.6442961574        5.5457217112        1.5366505328
 C        -6.7153199132        6.6360076225        0.9762722219
 O        -7.5358372265        6.2702678201        0.1959695218
 C        -6.5123996643        8.1572480754        1.2917605318
 C        -7.7329867386        8.9899226221        0.8607507638
 C        -9.0444961124        8.5558950150        1.5517375265
 O        -8.9445132818        7.7021892414        2.4275654806
 C       -10.3926719718        9.3693860334        1.4068596653
 C       -11.0178665270        8.5850557561        0.1765913726
 O       -10.8599388591        8.9633336077       -0.9464551318
 C       -11.8271060180        7.3733050736        0.4977056435
 C       -12.1028414888        6.4194720966       -0.7231307956
 C       -10.7713177063        5.8282566702       -1.2932597931
 O       -10.0450241778        5.2258525663       -0.4964361087
 C       -10.3782529817        5.8358919492       -2.8545753483
 C        -8.8205048108        6.2612658125       -2.9294792208
 O        -7.9034824418        5.5341833711       -2.5386093352
 C        -8.4280014339        7.6368423764       -3.5303784033
 C       -10.4012004227        4.3307048430       -3.2838955549
 C       -11.1892995706        6.8058446048       -3.6756799324
 C       -11.1434991699        9.4182609489        2.7222101986
 C        -9.9858868305       10.7360960632        0.8326845902
 C        -4.7186832999        6.2696565304        2.6258817854
 C        -4.7599032142        5.0288082949        0.3014064465
 C        -7.8524902247       -0.0778943906        4.9767940073
 C        -6.4676273245       -0.7358083955        3.0301123515
 C        -8.1722687991       -1.4551304107       -2.0596015986
 C        -8.5802832551        0.3220690186       -3.7557294962
 C       -15.8236260171       -0.3116695330       -3.3544033182
 C       -15.9447305407        2.2511666334       -3.3739247877
 H       -17.1399662507        2.1410164253       -0.8576328625
 H       -15.6325034876        2.9432836406       -0.3411953357
 H       -16.3574067474        1.6927586726        0.6158652210
 H       -13.1694278364       -0.7550674766       -3.9360014158
 H       -13.1859775042       -0.8712761442       -2.1994027585
 H       -11.2720951189        1.0583222840       -2.5492607537
 H       -11.1381797251        0.1204566500       -4.1078763141
 H       -10.0967243737        0.0963939915        0.3316799216
 H        -9.7035047380        1.8820475837        0.6669766792
 H        -7.2801510027        0.9612096991        0.7625896574
 H        -7.8977164753       -0.6237257420        0.8567580224
 H        -7.0973891070        2.8749645795        5.2705848858
 H        -8.1319069856        2.9847583027        3.7485847308
 H        -5.3000780173        4.0093424758        3.7793600467
 H        -6.7018351705        4.9773571917        4.1374848616
 H        -5.5501601424        8.5297620094        0.8718475697
 H        -6.4082140367        8.2763905150        2.3530636257
 H        -8.0058048542        8.9782021887       -0.1732496477
 H        -7.5518797685       10.0502699762        0.9220830540
 H       -12.8324292860        7.6729827502        0.8874161782
 H       -11.2723553583        6.8532885292        1.3370976154
 H       -12.6897711617        6.9777469612       -1.3948826575
 H       -12.7576936486        5.5990657935       -0.3376907855
 H        -8.7914083076        7.7159562630       -4.5226612022
 H        -7.3129692863        7.8178485755       -3.5865639817
 H        -8.8427810190        8.4145549313       -2.8482052294
 H        -9.4544524900        3.7644460239       -2.8689754644
 H       -10.2730309960        4.2024151074       -4.3958550478
 H       -11.2609493614        3.7391654183       -3.0001127506
 H       -10.8036751360        6.8772184843       -4.6469830420
 H       -11.1482406037        7.8258685843       -3.2128996383
 H       -12.2067017484        6.4603619981       -3.8106152337
 H       -10.8290365394       10.2946289048        3.3222907326
 H       -10.9621921081        8.5529221555        3.3762804896
 H       -12.1669035993        9.6042147030        2.5248516508
 H       -10.7159487087       11.5771671439        0.7244217051
 H        -9.4942716527       10.6032581866       -0.0948226870
 H        -9.2158025409       11.2694720726        1.4696915042
 H        -5.4239428680        6.7274124806        3.3609340219
 H        -4.1378536418        7.0771893679        2.1394805006
 H        -4.0851346303        5.5537170096        3.0856206566
 H        -3.7954927673        5.5102372407        0.2321700670
 H        -5.1371368881        5.2460550350       -0.7101552617
 H        -4.4750251289        3.9485656137        0.3138388754
 H        -7.0085338246       -0.2590534225        5.6888346600
 H        -8.3090503911       -1.0957970722        4.7925148836
 H        -8.6321830319        0.6753889218        5.2454681615
 H        -5.9444825484       -0.3115446480        2.1291369572
 H        -7.0643048263       -1.5032335526        2.6547007962
 H        -5.6978058663       -1.1072900486        3.6651107057
 H        -7.1077416661       -1.3439588919       -1.7708316750
 H        -8.1397345074       -2.0610611512       -2.9709299814
 H        -8.6376302576       -2.0684197406       -1.2991621614
 H        -7.5021103045        0.5583982313       -3.7900709953
 H        -9.2436066200        1.0836740281       -4.0537221579
 H        -8.6151456853       -0.4888041697       -4.4364093594
 H       -15.9761501237       -0.1448267130       -4.3899906207
 H       -16.7608272727       -0.5646136162       -2.8230496615
 H       -15.1545212339       -1.0910463797       -3.1210197535
 H       -16.2930356914        1.9990205499       -4.3614060787
 H       -15.1547635937        2.9795295673       -3.4701664160
 H       -16.6764159245        2.7250976294       -2.8040912361
 Na       -8.0724327748        4.1159119739       -0.5380553551
