117

 C       -16.1476547471        2.0118987484       -0.3076703061
 C       -15.6698042382        0.8758701361       -1.0746380820
 O       -15.3595674528       -0.1633510065       -0.5441591957
 C       -15.4097854144        1.0369450092       -2.6780797636
 C       -13.8074177392        1.0932166073       -2.8304940375
 O       -13.2515922311        2.1426419627       -2.8830944843
 C       -12.9465618629       -0.3095841256       -2.9515831547
 C       -11.4455905809        0.0885703310       -3.1657969093
 C       -10.5040077185       -0.7870343569       -2.2393496943
 O       -11.0026175778       -1.6502395004       -1.5717582456
 C        -9.0125754696       -0.2643836189       -2.2902084530
 C        -8.9199183082        0.9182254228       -1.2798065135
 O        -8.5761917863        1.9847485780       -1.7587069817
 C        -9.4447691923        0.8052113617        0.1321934894
 C        -8.2749152678        0.4531142465        1.1139863878
 C        -8.4701250045        0.8520169570        2.5501148518
 O        -9.3963170396        1.5247185502        2.9185680293
 C        -7.3767522939        0.4896794787        3.5774142301
 C        -6.4381566093        1.6768089156        3.7274946013
 O        -5.2827293182        1.6195568876        3.4980706478
 C        -7.0216272668        3.0576094290        4.2618842361
 C        -6.1989167456        4.2770410495        3.7669645661
 C        -6.3169827017        4.4172846428        2.2229375292
 O        -6.8142813690        3.4925024099        1.5238690489
 C        -5.5713837991        5.6213647629        1.5442775352
 C        -6.5844899695        6.5962485227        0.7996364981
 O        -7.5124154660        6.1471390148        0.1550497640
 C        -6.5202623606        8.1437546525        1.1251701342
 C        -7.7937456857        8.8174570664        0.7091965940
 C        -8.9954132037        8.6334631200        1.7183654714
 O        -8.9974575824        7.7657565578        2.5487983204
 C       -10.3454448934        9.4173967388        1.2863613012
 C       -10.8391944883        8.4880993960        0.1191757104
 O       -10.6386627181        8.7984481394       -1.0569963621
 C       -11.6346242952        7.2134751899        0.3990421191
 C       -11.9353455225        6.5671388086       -0.9436244117
 C       -10.6800297463        5.8190084297       -1.3074778818
 O       -10.0918358368        5.2387182366       -0.4628429854
 C       -10.3351062459        5.8386471456       -2.8585156334
 C        -8.7410885570        6.1089337706       -2.9504174057
 O        -7.9732965330        5.5173182101       -2.2883130082
 C        -8.3298656977        7.4468977787       -3.6652367110
 C       -10.5614175711        4.4169010232       -3.3669586560
 C       -11.2074837856        6.7869495641       -3.7714342760
 C       -11.3808541943        9.3654785794        2.4409505525
 C       -10.1743755064       10.8973006184        0.8221045469
 C        -4.6928510386        6.3833102004        2.5807724889
 C        -4.6310017921        5.0522098255        0.4247962184
 C        -8.1389856888        0.1372530580        4.9369055177
 C        -6.5102026479       -0.6962267946        3.1335206006
 C        -8.2000422839       -1.4216461133       -1.7323092968
 C        -8.5816251676        0.1935382465       -3.7367570609
 C       -16.1006964110       -0.2488293809       -3.2890110915
 C       -15.9178797682        2.3921262445       -3.2131097158
 H       -17.2511717357        1.9671855935       -0.1442083819
 H       -15.9297728262        2.9352559273       -0.7308810974
 H       -15.6078210206        1.9945493367        0.6389310505
 H       -13.3576295622       -0.9196007739       -3.7428078366
 H       -13.0261081376       -0.9408908123       -2.0562445526
 H       -11.2912989402        1.1834127113       -2.9207344891
 H       -11.1544750279       -0.1741888328       -4.2228874447
 H       -10.2781715846        0.0035980705        0.2180325561
 H        -9.8273523935        1.7034412813        0.4913969527
 H        -7.3495771969        0.9600012821        0.7495256803
 H        -8.0094016578       -0.6129928633        1.1682625195
 H        -6.8892315174        2.9221062481        5.3318370083
 H        -8.0896901015        3.1289830136        4.0003481345
 H        -5.1397589063        4.0733563985        3.9983362750
 H        -6.4704843284        5.2123681743        4.3284559530
 H        -5.7144136964        8.6305774154        0.5817917780
 H        -6.2448481117        8.2361528269        2.2177526424
 H        -8.0756077280        8.6369416281       -0.3529849921
 H        -7.6755359314        9.8978327700        0.5311215712
 H       -12.5735566010        7.4226701398        0.8619092072
 H       -11.0860456685        6.5269139271        0.9867628554
 H       -12.3282635612        7.3834487350       -1.6261002870
 H       -12.7632609959        5.8801511859       -0.8569076019
 H        -8.5620407767        7.4879834163       -4.7387153870
 H        -7.2976953746        7.5605588608       -3.5366271355
 H        -8.7750419647        8.2345897149       -3.0967700513
 H       -10.2145816984        3.6597088372       -2.7623149698
 H       -10.1212216276        4.2079842063       -4.3212666410
 H       -11.6798155923        4.2648277304       -3.4682606633
 H       -11.0629818159        6.5375264419       -4.8500015688
 H       -11.0263842487        7.8139719110       -3.6107811879
 H       -12.2439272157        6.5374541644       -3.6069722099
 H       -10.8801684489        9.7343042946        3.3477163661
 H       -11.6118766282        8.3225139600        2.7058262244
 H       -12.2586042345       10.0660021916        2.3784053880
 H       -11.1352352558       11.3862037262        0.7778216986
 H        -9.6413125797       11.1862480277       -0.1323365322
 H        -9.7853177215       11.5213180822        1.5957969190
 H        -5.2802188181        6.7220861726        3.4421915657
 H        -4.3576848761        7.2780241150        2.0866739709
 H        -3.8556113617        5.6954392135        2.8637187404
 H        -3.8376598785        5.6891215570       -0.0093081138
 H        -5.1509539058        4.7671264256       -0.4813653732
 H        -4.0000012747        4.2550377718        0.7773610729
 H        -7.3918785824       -0.0651490698        5.6345253790
 H        -8.7150761497       -0.6941918385        4.7790752324
 H        -8.7278194947        0.9424674182        5.2162559454
 H        -5.8934877685       -0.5462374507        2.2874555032
 H        -7.1980784819       -1.5701955178        2.8797460802
 H        -5.7767256093       -0.9115449580        3.9381057688
 H        -7.1295380412       -1.2760816831       -1.7508041740
 H        -8.3238105363       -2.3344724070       -2.3196016046
 H        -8.4756764432       -1.6257832885       -0.6924190143
 H        -7.5293678281        0.0997919774       -3.8480602099
 H        -9.0040643142        1.2111932977       -3.9513950757
 H        -9.0000054945       -0.4937761015       -4.5086049949
 H       -15.4730626977       -0.5687995220       -4.1386800478
 H       -17.1044353613       -0.0555299899       -3.5553770197
 H       -16.0592269774       -0.9852166497       -2.4675048034
 H       -15.9149712337        2.3761204116       -4.3257884170
 H       -15.3471002344        3.2886568595       -2.8630435726
 H       -16.9780183024        2.5634579033       -2.8036645365
 Na       -8.0285333992        3.9623708172       -0.5596866005
