117

 C       -15.7466913951        2.1490055052        0.0846474804
 C       -15.5663718112        1.0649892775       -0.9689222203
 O       -15.5689409950       -0.1139624623       -0.5886001536
 C       -15.5540871217        1.3115358768       -2.5514962907
 C       -14.0051759408        1.3333627523       -2.8512923896
 O       -13.5166019162        2.3369723997       -3.2681119080
 C       -13.1358967425       -0.0161829088       -2.5675096406
 C       -11.6704668244        0.4032002319       -2.5454256304
 C       -10.7411793718       -0.7451454272       -1.9827921650
 O       -11.1515738204       -1.7021454081       -1.3661884147
 C        -9.1890435908       -0.5790241239       -2.1984861108
 C        -8.9486973700        0.6621563414       -1.2713354151
 O        -8.4628465638        1.7242254695       -1.6589733349
 C        -9.3245658815        0.5249901331        0.2144691933
 C        -8.1425123662        0.7789359724        1.1711632188
 C        -8.5473808560        1.2371451580        2.5874445642
 O        -9.4344722761        2.0947441159        2.6639707697
 C        -7.6953856454        0.8150915792        3.8146577355
 C        -6.5233799139        1.8690357397        3.8067439483
 O        -5.4668880172        1.6312424433        3.2723121472
 C        -6.7681259172        3.3308915763        4.3894163802
 C        -5.8330300257        4.4174545978        3.8269295099
 C        -6.0712253783        4.5194435170        2.2722335873
 O        -6.8614277263        3.7699238448        1.6917547685
 C        -5.4114085067        5.7305423113        1.4983323650
 C        -6.5808646240        6.7317013404        0.9622186801
 O        -7.5139203666        6.3185943279        0.3051028244
 C        -6.4054954980        8.2877285699        1.3429181455
 C        -7.6160950441        9.0719740788        0.8721924469
 C        -8.8976506126        8.8065950607        1.7096901199
 O        -8.8040913743        8.5671481213        2.9051688221
 C       -10.2338812721        9.1334166932        0.9868288963
 C       -10.5390194350        8.0879189151       -0.1208520133
 O        -9.9307207924        8.0393249818       -1.2013962782
 C       -11.6089006880        7.0838526234        0.1049723946
 C       -11.9485920142        6.4577563945       -1.2230574910
 C       -10.7680630028        5.5456909773       -1.5903215084
 O       -10.1652366879        4.9775747341       -0.7310791196
 C       -10.2219727154        5.4006770565       -3.1642904343
 C        -8.6316524119        5.7111975868       -3.1113752716
 O        -7.8900553182        5.0139370236       -2.4909889762
 C        -7.9813901001        6.9054256973       -3.8387465050
 C       -10.4906756913        3.9065935973       -3.5234887204
 C       -10.9747044676        6.2615597851       -4.2601245705
 C       -11.2793175255        9.1676655152        2.1179998988
 C       -10.2620083780       10.5084975850        0.3178537323
 C        -4.3330149557        6.4608339151        2.3716163982
 C        -4.7624474864        5.1516192991        0.1344078211
 C        -8.5879980760        1.0731348876        5.0230669782
 C        -7.1013789340       -0.6149557758        3.8328589533
 C        -8.4004492490       -1.7896028896       -1.5760143220
 C        -8.7351531405       -0.3352269504       -3.6654791112
 C       -16.1514024231        0.1196504581       -3.3205817665
 C       -16.2628927210        2.6421589888       -2.8602878818
 H       -16.6189836182        2.8161347997       -0.2031289245
 H       -14.8756585329        2.7900215802        0.1647937567
 H       -15.9815079814        1.6619145807        1.0362904393
 H       -13.3093921628       -0.6501905041       -3.4524749427
 H       -13.4566090509       -0.5391681492       -1.6502791491
 H       -11.5126406541        1.2668270608       -1.9237180712
 H       -11.3916168867        0.8061824053       -3.4707280680
 H        -9.7802422300       -0.5436506077        0.4220486767
 H       -10.1987209357        1.1427441646        0.4214447292
 H        -7.6370279619        1.6521887499        0.8070954959
 H        -7.4996883345       -0.0895731369        1.1981612369
 H        -6.7995848205        3.2001826311        5.4829370748
 H        -7.7776614176        3.6154497397        4.1443390057
 H        -4.7767302388        4.3299027230        4.0753611615
 H        -6.1031870804        5.3579343458        4.3173940109
 H        -5.6161551060        8.5824910457        0.6499207052
 H        -6.2152662895        8.5085467658        2.3669754826
 H        -7.8112965989        9.0196685179       -0.2016424227
 H        -7.4208506846       10.1206205316        1.0787826609
 H       -12.5624520198        7.4861796398        0.5329442237
 H       -11.2259479943        6.2811598118        0.8044990261
 H       -12.1089788445        7.2921612968       -1.9636835931
 H       -12.8617276591        5.9173248517       -1.2242422605
 H        -8.2231734729        7.1002034632       -4.9242437502
 H        -6.9204605395        6.7473242272       -3.5833529572
 H        -8.3078109690        7.8271386385       -3.3160638991
 H       -10.2014948376        3.2400074791       -2.7574959559
 H       -10.0994038631        3.6380862108       -4.4607908768
 H       -11.5629382296        3.7716358187       -3.6298541136
 H       -10.5890783824        6.0658120855       -5.3090454341
 H       -10.8596859269        7.2714863889       -3.9528358257
 H       -12.0310664422        6.0324342794       -4.1456375268
 H       -10.8826238580        9.6600583068        2.9618233906
 H       -11.5660289536        8.2062061525        2.4486431923
 H       -12.2446922461        9.6046791739        1.8431531203
 H       -11.2224547605       10.7195170480       -0.0610965007
 H        -9.6224461388       10.7712311401       -0.5399403011
 H        -9.9925892649       11.2442432889        1.0162178814
 H        -4.7017752599        6.9663273329        3.2562700864
 H        -3.7638405759        7.1222999360        1.7855139061
 H        -3.5949591814        5.7816376744        2.7759830638
 H        -3.7705686399        5.6169586880       -0.0450652322
 H        -5.3483395782        5.2902676666       -0.7538037769
 H        -4.5962272987        4.0823746517        0.1355349450
 H        -8.0832454131        1.0298560091        6.0317184535
 H        -9.3964302643        0.3256767722        5.0962211347
 H        -9.0652370279        2.0784202296        4.9017721897
 H        -6.2157622261       -0.6402087021        3.2881880889
 H        -7.8102786897       -1.3992833723        3.4643982126
 H        -6.9498669670       -0.9184007760        4.8739319153
 H        -7.3541000471       -1.6536499545       -1.6891118231
 H        -8.7303343767       -2.6555344543       -2.1411315180
 H        -8.6018599225       -2.0394494062       -0.5337611140
 H        -7.7666930716       -0.7326381045       -3.8122784020
 H        -8.5793276685        0.6874498000       -4.0418477713
 H        -9.4394269545       -0.8483231553       -4.3602244599
 H       -16.0879506622        0.3057881891       -4.4157215995
 H       -17.1933911053        0.0542673062       -3.0818179815
 H       -15.6079030406       -0.8193886541       -3.0543468503
 H       -16.5225892742        2.7256503164       -3.8972211151
 H       -15.7247392674        3.5495022882       -2.6615876340
 H       -17.2803327022        2.7023821427       -2.4488747326
 Na       -8.1542466235        3.8281008486       -0.5055678589
