117

 C       -15.5815402520        2.1992845000        0.1301752034
 C       -15.5996143453        1.0775905807       -0.8770914824
 O       -15.6089087365       -0.0778516260       -0.5235780230
 C       -15.5716139167        1.3519843953       -2.4581728882
 C       -14.0801798910        1.4183203466       -2.8449053720
 O       -13.6091852155        2.4555414855       -3.1953620450
 C       -13.1364660696        0.2110568730       -2.5542960184
 C       -11.6591614605        0.6282486391       -2.2541115305
 C       -10.8207514485       -0.6286708801       -1.7845772352
 O       -11.3421310408       -1.6730547437       -1.4734864575
 C        -9.2096302723       -0.3938821049       -1.9956479567
 C        -8.8346111350        0.7061424698       -1.0770703707
 O        -8.3217991490        1.7354250108       -1.4849345211
 C        -9.2317705780        0.6241427937        0.3386396830
 C        -8.0676282614        0.8108867735        1.2894884244
 C        -8.6262896324        1.3122700150        2.6783984715
 O        -9.5796990358        2.0340818558        2.6469088201
 C        -7.8598915911        0.9657549997        4.0155245965
 C        -6.6283590591        1.9329203368        3.8722314331
 O        -5.5722030372        1.6053355658        3.3881924089
 C        -6.7541040139        3.4483556198        4.3314441540
 C        -5.8128565313        4.4095919162        3.5622397416
 C        -6.1766537013        4.5784404739        2.0840321808
 O        -7.1009311514        3.9162934295        1.6679564070
 C        -5.4794042079        5.6597227540        1.2394062222
 C        -6.6257246286        6.7315818928        0.9010017436
 O        -7.6040301374        6.3781870575        0.2496719466
 C        -6.5098226345        8.2131502989        1.2736567053
 C        -7.5945003171        9.1264951330        0.7156816536
 C        -8.8598405235        8.8506796539        1.5457892138
 O        -8.7444825004        8.4567877646        2.6875871389
 C       -10.2954445285        9.2022000150        0.9093235462
 C       -10.4400985804        7.9273026547       -0.1852573128
 O        -9.4182348105        7.6642421109       -0.8363728228
 C       -11.7122675566        7.1460455442       -0.1633153307
 C       -11.8319409624        6.2130933451       -1.3848740431
 C       -10.5658853968        5.3231818706       -1.5993812597
 O       -10.1054417603        4.7650422526       -0.6677841912
 C       -10.0352163401        5.0881664087       -3.1629714893
 C        -8.4880845099        5.5442986414       -3.1662814233
 O        -7.6325339764        4.9601766365       -2.6152851838
 C        -8.1171713396        6.8312110989       -3.9396929978
 C       -10.1122580817        3.5967096724       -3.5005736065
 C       -10.9245676684        6.0031940535       -4.1613043930
 C       -11.3330091587        9.2784619442        2.0131950312
 C       -10.2796359500       10.4589086968        0.0615726601
 C        -4.2282247589        6.2453742564        1.9566285609
 C        -4.9961939861        4.9500267978       -0.0719857341
 C        -8.7194565690        1.3374873006        5.2067832258
 C        -7.3993060860       -0.5025355198        4.0645366770
 C        -8.5790344444       -1.7594902088       -1.5973619704
 C        -8.8922979378       -0.1217040319       -3.4744111467
 C       -16.2269970233        0.1961484684       -3.2695714001
 C       -16.1392720527        2.7185633958       -2.8542363670
 H       -16.4977957391        2.7939968423        0.0333663871
 H       -14.7724852226        2.8209737033       -0.0817356125
 H       -15.6178223473        1.8114858083        1.1698717112
 H       -13.0995200446       -0.3118766994       -3.5224057841
 H       -13.4855298644       -0.4579974073       -1.7525213146
 H       -11.5687594367        1.3786438902       -1.4102716052
 H       -11.1412483363        1.2069175935       -3.0496987551
 H        -9.8580658235       -0.3285666463        0.5033793454
 H        -9.7861442493        1.4938945789        0.5559649365
 H        -7.4970775785        1.6810994756        0.9929325929
 H        -7.3716468509       -0.0573193362        1.3824711364
 H        -6.4875061887        3.4084687227        5.4163220116
 H        -7.7836087989        3.6917784533        4.3121521354
 H        -4.8146090097        3.8958966577        3.6796446292
 H        -5.6096075441        5.3450205632        4.0997339663
 H        -5.5855639306        8.5982006288        0.7470509845
 H        -6.4905379876        8.2264060633        2.3488086974
 H        -7.6119920662        9.1073939900       -0.4046255659
 H        -7.3012582854       10.1772484696        1.0326158002
 H       -12.5905054286        7.7257095978       -0.1556898607
 H       -11.8181215623        6.5225677136        0.6987117002
 H       -12.0269108908        6.8548337531       -2.2667531555
 H       -12.7221760039        5.5932697841       -1.2598759111
 H        -8.4069233414        6.7957120626       -5.0306589201
 H        -7.0687012935        6.9582414747       -3.8570023172
 H        -8.6472462458        7.6533220521       -3.5716208914
 H        -9.5293230973        2.9222521388       -2.9431364505
 H        -9.9840517045        3.4961955084       -4.5927184898
 H       -11.2128228485        3.2976398638       -3.3070501148
 H       -10.4736104388        5.9680279392       -5.1769509323
 H       -11.0274679062        6.9739210161       -3.7804710907
 H       -11.8707215366        5.5062640956       -4.2915480094
 H       -11.4260568842       10.2717295011        2.4609578144
 H       -11.1503445281        8.6256220853        2.8642553331
 H       -12.3484697784        8.8872461817        1.6064368022
 H       -11.2270549906       10.5263733997       -0.4557196277
 H        -9.4367288615       10.7061637228       -0.6675155349
 H       -10.1614030888       11.3846404378        0.6200355456
 H        -4.3108238788        6.6788149601        2.9172844296
 H        -3.7037887993        7.0187799462        1.3358641548
 H        -3.4170079806        5.4683738141        2.1006934506
 H        -4.6224122445        5.7508398311       -0.7257866557
 H        -5.7659527064        4.4182461947       -0.6613522780
 H        -4.3270539310        4.0894936297        0.1056398646
 H        -8.2672391282        1.2018552798        6.1448846297
 H        -9.6015893211        0.7792565605        5.2391733197
 H        -9.0171117191        2.3385074215        5.1038528544
 H        -6.4931273312       -0.5887173503        3.5252782941
 H        -8.1418126038       -1.2750188545        3.7480847622
 H        -7.2576583513       -0.7661057557        5.1291497679
 H        -7.6183040405       -1.8327280026       -2.0791667645
 H        -9.2443576036       -2.5940922608       -1.8623014312
 H        -8.4442868454       -1.8161753644       -0.4737680525
 H        -8.6038388169       -0.9730935981       -4.0618061440
 H        -8.0361180452        0.5585413001       -3.5121975431
 H        -9.6320465255        0.3817662425       -4.1223664490
 H       -15.5275759572       -0.2514665570       -3.9438238446
 H       -17.0517453756        0.5584531418       -3.8543473255
 H       -16.5739586557       -0.5729079902       -2.5782485731
 H       -15.6336955148        3.2339295745       -3.6705915103
 H       -16.0696769816        3.4340814035       -2.0292450923
 H       -17.2063913727        2.8075246151       -3.1591099186
 Na       -8.0395362006        3.9325925085       -0.4003144372
