117

 C       -15.5517574768        2.2559017695        0.1093203025
 C       -15.6946370179        1.1175975253       -0.9323964203
 O       -15.6100400183       -0.0857304765       -0.5068880962
 C       -15.5203346589        1.3711322613       -2.4164859407
 C       -13.9457654546        1.4505005364       -2.7428964901
 O       -13.4513268958        2.5012382687       -3.1220313440
 C       -13.1673694711        0.2329295619       -2.5125179914
 C       -11.7362913157        0.6679133727       -2.1597952647
 C       -10.8533724532       -0.5122350602       -1.9247870097
 O       -11.3603434820       -1.5621839748       -1.5515264575
 C        -9.3192837750       -0.3650670405       -2.0508607861
 C        -8.8934598326        0.7849942044       -1.1012447109
 O        -8.1660361979        1.7185103502       -1.4728162790
 C        -9.3553493507        0.6242844969        0.4171413362
 C        -8.1729811109        0.8334152483        1.3688978099
 C        -8.6068178349        1.3404314645        2.7766151617
 O        -9.6536990588        2.0369808008        2.8755296929
 C        -7.8349263948        1.0945884371        4.0875684216
 C        -6.6063438073        1.9868429641        3.9141230752
 O        -5.5497990415        1.5690618773        3.4232964367
 C        -6.7461951606        3.4840918053        4.3511436832
 C        -5.7599798582        4.2983576568        3.5966367599
 C        -6.2321595762        4.5548235849        2.1527737200
 O        -7.1905293370        3.8954982399        1.7418989600
 C        -5.4820519167        5.5719430205        1.0963530800
 C        -6.5715813111        6.6321205057        0.7156268029
 O        -7.6126699418        6.2637680589        0.2586092643
 C        -6.3482750798        8.1807267743        1.1894731736
 C        -7.5431548170        9.1193647440        0.7372043347
 C        -8.8557490838        8.9417617556        1.5837790537
 O        -8.9441052963        8.4112815999        2.6982567125
 C       -10.2141337831        9.0951779388        0.8134398268
 C       -10.3729276293        7.8451974407       -0.1291959953
 O        -9.5489725305        7.5373364986       -0.9783859954
 C       -11.6708096257        7.1827818712       -0.1581934251
 C       -11.7768320608        6.1880912151       -1.3606051276
 C       -10.5682485944        5.3531282937       -1.5949922284
 O       -10.1980981217        4.6422156169       -0.6427034239
 C        -9.9599672914        5.0410575524       -3.0926268444
 C        -8.4871435045        5.5537892843       -3.1966873314
 O        -7.5984793163        4.9903243269       -2.5439428324
 C        -8.0443668111        6.8027177740       -3.9994255583
 C       -10.0966072332        3.5675089920       -3.4995461798
 C       -10.7632358177        5.7441420229       -4.1667724155
 C       -11.2939666375        9.2716131070        1.8852289584
 C       -10.2597892729       10.4085417042       -0.0083499823
 C        -4.2874585043        6.1643216859        1.8162835836
 C        -5.0162334338        4.9559386779       -0.2013534973
 C        -8.8134252315        1.4993654521        5.2541621322
 C        -7.3609017234       -0.3655105148        4.2478154692
 C        -8.5773883075       -1.6889050900       -1.5603829821
 C        -9.0146640433       -0.1406277443       -3.5273454856
 C       -16.1875766415        0.1817321062       -3.2748006350
 C       -16.2047536827        2.7260216744       -2.7895764283
 H       -16.5261890015        2.7520328078        0.4216075923
 H       -14.8523162074        3.0177185975       -0.2973394536
 H       -15.2136671004        1.8133480411        0.9998552930
 H       -13.1262694716       -0.3101494558       -3.4880533045
 H       -13.6194018723       -0.4004483667       -1.7083472505
 H       -11.7105787029        1.2600869759       -1.2183062168
 H       -11.3036008236        1.3318041137       -2.8656443714
 H        -9.6364573856       -0.4720210979        0.4940947417
 H       -10.1408694889        1.2838066044        0.7200465268
 H        -7.4534701911        1.5847626897        1.0855404002
 H        -7.6248484222       -0.0789440703        1.4568714671
 H        -6.7127721851        3.5930850696        5.4348555382
 H        -7.7508718114        3.7564531814        4.0434927183
 H        -4.7475446908        3.8635297818        3.6688924721
 H        -5.6297100678        5.2576294295        4.1450919586
 H        -5.4745880088        8.5668223349        0.6592371472
 H        -6.2515694265        8.1360176317        2.2683772498
 H        -7.7227160430        9.0099917356       -0.3710949978
 H        -7.2165254160       10.1710628906        0.9156083944
 H       -12.5335129248        7.8511542989       -0.2602377938
 H       -11.9184101075        6.6070222462        0.7437299475
 H       -12.0461825686        6.7685463108       -2.2905171860
 H       -12.5833726560        5.5094127998       -1.1643306060
 H        -8.1991471790        6.8277879717       -5.0721755420
 H        -6.9793995882        7.0526566230       -3.7965734437
 H        -8.7269490464        7.5728490020       -3.6089280909
 H        -9.5424958484        2.8479058699       -2.8654158629
 H        -9.8049878168        3.4839093673       -4.4909969409
 H       -11.1013820792        3.2932844363       -3.4426166456
 H       -10.3070888094        5.5144936288       -5.1448660690
 H       -10.8473801081        6.7804517157       -3.9688322351
 H       -11.7080105527        5.2377096129       -4.2219390239
 H       -11.1808401440       10.2778700028        2.3354976541
 H       -11.1713191257        8.5935443697        2.7580545650
 H       -12.3273416820        9.0959050481        1.5573198918
 H       -11.2962947790       10.6457121394       -0.2208602836
 H        -9.6395307324       10.6466939064       -0.8476482699
 H        -9.9228247661       11.2015823667        0.6248029463
 H        -4.5151995148        6.7275522949        2.7616404008
 H        -3.7441668929        6.8490553997        1.2612185166
 H        -3.5647728649        5.4289556151        2.1222317237
 H        -5.1142087268        5.7466481273       -0.9902299011
 H        -5.5938117014        4.1130565348       -0.5435197221
 H        -4.0693659756        4.4405518129       -0.1414867934
 H        -8.3919676691        1.4833044516        6.2189081927
 H        -9.6211349507        0.8499334552        5.2988237499
 H        -9.2496371593        2.4398042396        5.1197272326
 H        -6.3433073115       -0.4701933291        3.9117271094
 H        -8.0170229369       -1.1640327780        3.7928605384
 H        -7.4194328513       -0.5954280174        5.3373620064
 H        -7.5276359434       -1.5440318413       -1.8304912931
 H        -8.9842840948       -2.6456920476       -1.9372044890
 H        -8.6626439243       -1.7164840093       -0.4718018995
 H        -9.2499467543       -0.9433164927       -4.1818989393
 H        -7.9415128430        0.1044255901       -3.6437948140
 H        -9.4865794679        0.7275532621       -4.0363730175
 H       -15.4821614157       -0.3458188258       -3.9375099241
 H       -17.0034094670        0.5232407049       -3.8500078158
 H       -16.5706694411       -0.5541881116       -2.5490485628
 H       -16.0334683667        3.0805010067       -3.8252736414
 H       -15.8579758855        3.5805063065       -2.1470387352
 H       -17.3267421009        2.8292275510       -2.6820685859
 Na       -7.9988060169        4.0823278838       -0.6031112903
