117

 C       -15.5323801001        2.2902569669        0.0629065214
 C       -15.5114911724        1.0455288230       -0.8890453604
 O       -15.6947805758       -0.0612509653       -0.5107570575
 C       -15.5176236776        1.4728067454       -2.4429824266
 C       -14.0003566709        1.5511968607       -2.7164744026
 O       -13.4258219922        2.5964267209       -3.0174320056
 C       -13.2162791945        0.2570084910       -2.4798436392
 C       -11.8173537343        0.6744069843       -2.0665395604
 C       -10.9106014610       -0.5577269671       -1.8953695638
 O       -11.3321548407       -1.6295207526       -1.6051991506
 C        -9.2991015125       -0.3142278313       -2.0138609700
 C        -8.8242651803        0.7679001914       -1.0638032621
 O        -8.1438363104        1.7196239372       -1.4061668811
 C        -9.3492653420        0.6878790860        0.4416449184
 C        -8.2355395505        0.8372992588        1.4961492142
 C        -8.7881508459        1.3791433808        2.8282569964
 O        -9.7801815721        2.0373967979        2.9151249389
 C        -7.8372867862        1.1523680503        4.1824891122
 C        -6.5839314131        2.0491062611        4.0135129529
 O        -5.6009172909        1.5873493927        3.4959858754
 C        -6.6833393868        3.5635311308        4.3355601259
 C        -5.7357541556        4.3648318908        3.4566788888
 C        -6.2158318120        4.5129138568        2.0670063090
 O        -7.2149513833        3.9005808965        1.6723456977
 C        -5.4857088199        5.5177258411        1.1325068957
 C        -6.6667870997        6.6013438024        0.8393860124
 O        -7.6064224525        6.2663353558        0.1918013596
 C        -6.3053267682        8.0452251182        1.1078570631
 C        -7.5067782874        8.9772486341        0.8112567863
 C        -8.8037650334        8.7404686715        1.5450629733
 O        -8.8458344862        8.4380444638        2.6960159563
 C       -10.1707372889        9.1071649288        0.7738040567
 C       -10.4332725505        7.9161634387       -0.2580902951
 O        -9.5863530682        7.5825091075       -1.0483900665
 C       -11.7714453912        7.0681352274       -0.1533282823
 C       -11.8875323827        6.1489962731       -1.4733863018
 C       -10.6121384110        5.2435749035       -1.6421265428
 O       -10.1636691989        4.5322826258       -0.7194183550
 C        -9.9652406216        5.1296833612       -3.0923414178
 C        -8.4520237333        5.6286956855       -3.0495606932
 O        -7.5010277117        4.9766190032       -2.5462650021
 C        -8.1033056829        6.7170432307       -3.9854471771
 C        -9.9318346326        3.5549259233       -3.3119706443
 C       -10.7811753625        5.7681309092       -4.2565171623
 C       -11.3426604031        9.1617233827        1.7598941381
 C       -10.1263085878       10.3830611981       -0.1606084645
 C        -4.2368828036        6.1774206155        1.7683916652
 C        -5.0764604128        4.8573186329       -0.2545243058
 C        -8.7367692614        1.5875331143        5.3176362059
 C        -7.3812482284       -0.3310252979        4.4028633501
 C        -8.5958596881       -1.5937826927       -1.5804486862
 C        -9.0099233760       -0.0977804257       -3.5369559503
 C       -16.1026611047        0.2798357793       -3.2208022874
 C       -16.3103726614        2.7291957657       -2.7914891503
 H       -16.5841700558        2.4250574989        0.2689568625
 H       -15.1342985331        3.2339415921       -0.4230572530
 H       -15.1250991329        2.0807885137        1.0561878836
 H       -13.1231876789       -0.3881994771       -3.3676735026
 H       -13.6321730853       -0.3106658136       -1.6429054627
 H       -11.8363340236        1.2634936646       -1.1799018952
 H       -11.3232344354        1.2597890724       -2.8481129215
 H        -9.8864900486       -0.1828392833        0.5927781147
 H        -9.9456358367        1.6637061199        0.5459963836
 H        -7.4180191159        1.5440927842        1.2657204157
 H        -7.7182729985       -0.0782301863        1.6451566048
 H        -6.4834867686        3.7159158165        5.3744882687
 H        -7.7389971394        3.8921099461        4.1567799048
 H        -4.7283780187        3.9950684184        3.4923919877
 H        -5.6395918085        5.3482690087        3.9398775339
 H        -5.4918896167        8.2607945110        0.4644867831
 H        -6.0332957031        8.0638557766        2.1879858921
 H        -7.7138409854        8.9455055019       -0.2559278997
 H        -7.1968563797        9.9846225744        1.0645953834
 H       -12.7526869277        7.6337203500       -0.0933812194
 H       -11.8040936132        6.4076600585        0.7527417175
 H       -11.9440982034        6.8456840350       -2.2847679922
 H       -12.7806410952        5.4919678589       -1.5270511052
 H        -8.3129911545        6.3588834693       -4.9833381200
 H        -7.0138365363        6.9651182841       -4.0089795441
 H        -8.7901461782        7.6261667245       -3.8881121092
 H        -9.4128104164        3.1752956478       -2.4551030129
 H        -9.3674528101        3.2919394879       -4.1732529129
 H       -10.8851483735        3.1472214559       -3.3350327029
 H       -10.4883035097        5.2938788282       -5.1418035856
 H       -10.6598114962        6.8802225599       -4.3044746734
 H       -11.8162320415        5.4569763923       -4.1366393143
 H       -11.1438533282        9.9393523849        2.5096738288
 H       -11.4167966255        8.2377770987        2.3513588710
 H       -12.2794499333        9.3395248458        1.3257012804
 H       -11.1282504427       10.7090681941       -0.4303207214
 H        -9.5912201973       10.1789079869       -1.0106744936
 H        -9.5960345158       11.2778580692        0.1600591988
 H        -4.4272951810        6.8913956930        2.5810758443
 H        -3.7261255916        6.8004248597        1.0687500032
 H        -3.5161575170        5.5328714831        2.1404485453
 H        -5.3956248966        5.4409388394       -1.1037185714
 H        -5.4876790077        3.8584855241       -0.3683557995
 H        -4.0442687288        4.5558247432       -0.2426484462
 H        -8.1977525561        1.6340850554        6.2651784345
 H        -9.5819053064        0.8988292112        5.5246181735
 H        -9.2434902937        2.5504286278        5.2216793795
 H        -6.3420285146       -0.4956945804        3.9534448733
 H        -8.0765893646       -0.9911493221        3.9193500884
 H        -7.3688535250       -0.6186925104        5.4558927767
 H        -7.4995056308       -1.4204836368       -1.6008718018
 H        -8.8644975959       -2.4108216245       -2.2483451882
 H        -8.9496872013       -1.8338348537       -0.6153981383
 H        -9.7457207510       -0.6228476670       -4.1857226120
 H        -8.0109385054       -0.3064296586       -3.8986300859
 H        -9.1216828686        0.9154922068       -3.8589659698
 H       -15.3408257099       -0.1781659318       -3.8712470882
 H       -17.0169621585        0.4820065057       -3.8186128600
 H       -16.3524508173       -0.4676025619       -2.4725121298
 H       -16.5766393675        2.8103333025       -3.8661740835
 H       -15.7520452004        3.6644619417       -2.5691668934
 H       -17.2332255021        2.9142384881       -2.2572261618
 Na       -7.9678306412        4.0765668299       -0.6602468739
