117

 C       -11.2221391315       10.7356147321       -3.3177057694
 C       -10.7056057889        9.3766512248       -3.7810163855
 O       -10.8304686172        8.3737782549       -3.1584810186
 C        -9.8035349559        9.3878063835       -5.1070539053
 C        -8.3600401631       10.0819281021       -4.6626091167
 O        -8.1540227525       11.2170075766       -5.1033116323
 C        -7.4773028199        9.3177882147       -3.7228127736
 C        -7.6889502777       10.0365174631       -2.3699200028
 C        -6.6550757005        9.5834951229       -1.3191815592
 O        -5.5791014596        9.2216539762       -1.7448205648
 C        -7.0892897608        9.5104479104        0.1570565631
 C        -8.3393045954        8.4655805239        0.1886852426
 O        -9.4709641755        8.9342578839        0.3311531898
 C        -8.1447186352        6.9933357012        0.0002203416
 C        -9.3917250348        6.4758389971       -0.7311020690
 C        -9.6046156947        4.9531983442       -0.7730612804
 O        -9.0077422342        4.3119022934        0.0610983332
 C       -10.3367197023        4.2106463205       -1.8016401940
 C       -11.2856514859        3.2071503974       -0.9707321362
 O       -10.9955499163        2.0652028340       -0.8737773189
 C       -12.7251902015        3.7815134206       -0.5187052063
 C       -13.1496823024        3.0154482860        0.7552335192
 C       -12.3692834681        3.3582883609        2.0181906590
 O       -11.4466226718        4.1408502449        1.9205161130
 C       -12.5949216423        2.6544549343        3.3017729415
 C       -11.6926301280        1.2957578854        3.3280159430
 O       -10.6694706225        1.1567645549        2.7623715686
 C       -12.0647819177        0.3122572939        4.4252330477
 C       -11.6411348003       -1.1795040398        4.1112478492
 C       -12.4049092346       -1.7838474804        2.9623499844
 O       -13.3169616981       -1.3138922245        2.3321981354
 C       -11.7903181691       -3.2482063999        2.4775341753
 C       -10.4446655425       -2.8960354708        1.7948507242
 O        -9.5399038317       -2.4104138686        2.4099156064
 C       -10.3291952759       -2.8928505872        0.1549309014
 C        -8.8176003752       -2.7364777478       -0.1757872081
 C        -8.5272854214       -1.2042010754       -0.0499685602
 O        -9.4106955210       -0.4017931589        0.0281760143
 C        -7.0414650671       -0.6096063844       -0.0192669792
 C        -6.8303300795       -0.0697199263        1.5262663885
 O        -6.9449808343        1.0888685214        1.8267493146
 C        -6.6128275780       -1.1050343093        2.5565583000
 C        -5.9242957731       -1.7106704390       -0.3588881046
 C        -7.0226474645        0.5063160899       -1.0080523014
 C       -11.5068151338       -4.1348844301        3.7297142565
 C       -12.7627094186       -4.0854922169        1.5933316232
 C       -12.1153641958        3.5861174401        4.4521692788
 C       -14.1259245134        2.4619315803        3.4954305238
 C       -11.1017493573        5.0895138102       -2.9170168293
 C        -9.4335203162        3.3058413081       -2.6072223067
 C        -5.9585053404        8.8392991864        0.9156529164
 C        -7.4994264660       10.9214759269        0.6290307042
 C        -9.6041953754        7.8446021549       -5.4850400570
 C       -10.3683315199       10.2120218263       -6.2753215454
 H       -10.6839685966       11.5074664990       -3.8754233436
 H       -10.9943457046       10.8591952012       -2.2069281252
 H       -12.2502960879       10.8243980585       -3.6276915980
 H        -6.3669819050        9.4040798143       -4.0541734159
 H        -7.7208082521        8.2916369237       -3.5630275466
 H        -8.6486803449       10.0668989873       -1.8631695143
 H        -7.3828868341       11.0472017599       -2.5766008862
 H        -8.0333904471        6.5049914616        0.9540686220
 H        -7.2836501999        6.6953282097       -0.5470313150
 H        -9.4414258209        6.9082029078       -1.7227684559
 H       -10.2289103643        6.9491457565       -0.1610664899
 H       -13.2550865090        3.4651117316       -1.4019466640
 H       -12.6499438741        4.9010203302       -0.3664617363
 H       -13.0004109806        1.9200159383        0.6961695421
 H       -14.2069987766        3.0474702976        0.8496957860
 H       -13.1170147002        0.4102395933        4.5488957530
 H       -11.6481372510        0.5286074554        5.3840204780
 H       -11.8619431808       -1.7959329587        5.0272832339
 H       -10.4979129076       -1.2133170819        3.9103303303
 H       -10.8907396911       -2.1500588777       -0.3866498999
 H       -10.6298933696       -3.8185458350       -0.3314556827
 H        -8.6832456313       -2.9034850798       -1.2596342032
 H        -8.1257593036       -3.3552428875        0.4782142767
 H        -7.5342687421       -1.5746209694        2.7711077908
 H        -6.1126906060       -0.8935702378        3.5793105167
 H        -6.1172740460       -1.9207033561        2.1243596811
 H        -6.1421662426       -2.1378517602       -1.2621885336
 H        -5.8447735436       -2.6221106432        0.3256369967
 H        -4.8690739370       -1.2395943138       -0.4909665391
 H        -7.4603659551        1.4277409432       -0.6671508314
 H        -7.5713099880        0.2960749533       -1.9812652879
 H        -6.0108162341        0.6975575727       -1.3278449484
 H       -12.2712510671       -4.0329699926        4.5425951543
 H       -10.4622791771       -3.9986315608        4.1594130294
 H       -11.5163773049       -5.0995559822        3.3300092040
 H       -13.6287595433       -4.3801010852        2.2617582370
 H       -12.3413290930       -5.0897398777        1.3103805699
 H       -13.2913387070       -3.4357599221        0.8249098543
 H       -12.5661401854        4.6179926327        4.3953536057
 H       -11.0601279281        3.8402301994        4.3001198516
 H       -12.3841901083        3.1594918192        5.3926782223
 H       -14.5864353702        3.4737498388        3.4074354106
 H       -14.5089851555        1.8843673016        4.3453472581
 H       -14.4905742556        1.9106063528        2.7157564622
 H       -11.7062611879        4.4018629232       -3.5252667377
 H       -10.2667941471        5.3425141377       -3.5549118652
 H       -11.6872449584        5.9556900676       -2.6130798117
 H        -8.6947768910        2.8927480511       -1.9090259866
 H        -8.9377230819        3.6374109770       -3.5389368921
 H        -9.8968564687        2.3933571881       -2.9166615007
 H        -5.0062561313        9.3036794124        0.7976475080
 H        -5.7985672995        7.8196391536        0.5558686482
 H        -6.2058587652        8.7607478294        1.9569873177
 H        -8.2740253954       11.2327406522       -0.0606916178
 H        -6.6320509055       11.6089940161        0.5218900639
 H        -7.7181682116       10.8837696674        1.6862390918
 H        -9.5523836505        7.1942552375       -4.5631806287
 H        -8.7465523999        7.6192902555       -6.1148159483
 H       -10.5426786867        7.4659010783       -5.9089747956
 H       -10.9953813235        9.6497524506       -6.9256684865
 H        -9.5855711703       10.8012258351       -6.7222367713
 H       -11.0458976358       11.0690179129       -5.9924122348
 Na       -9.4710700940        1.9258094110        0.8966290483
