117

 C       -15.7471031549        2.4639485482        0.0980599870
 C       -15.6932976324        1.2713335299       -0.8175849100
 O       -15.8014825421        0.1941827402       -0.4076875271
 C       -15.5535681225        1.5068537341       -2.4378163988
 C       -13.9505159535        1.7173205418       -2.4802421982
 O       -13.4008957828        2.8407612856       -2.4737574438
 C       -13.1037013262        0.4577546428       -2.5106769790
 C       -11.6983017523        0.7722532027       -1.8486509753
 C       -10.8209881955       -0.5045520790       -1.8196427100
 O       -11.3335094353       -1.5941802835       -1.7041160940
 C        -9.2628374710       -0.2965956626       -1.7345367193
 C        -8.8202340642        0.8909404761       -0.7748255431
 O        -7.9106723181        1.6355476334       -1.0205299320
 C        -9.5824168742        0.8459978906        0.6433597584
 C        -8.5628018476        0.7902256839        1.7816236332
 C        -9.0299165001        1.3421730557        3.1133342144
 O       -10.0192106682        1.9437790127        3.2430542541
 C        -7.9805678731        1.3399602766        4.3536243895
 C        -6.6971943507        2.1861830282        3.9939189081
 O        -5.6948621873        1.7201092959        3.5329336254
 C        -6.7571310858        3.6942057819        4.3264368426
 C        -5.7301354579        4.5328584432        3.5536277375
 C        -5.9692505461        4.3433408994        2.0035390005
 O        -6.8605349374        3.5490755418        1.6401793687
 C        -5.3264492768        5.3087768268        1.0027663342
 C        -6.5450835928        6.3461284070        0.7262250926
 O        -7.4936742206        5.9360960648        0.1029741503
 C        -6.2736404675        7.7791741276        1.0291765291
 C        -7.3567287062        8.7344002675        0.4968607427
 C        -8.7633476122        8.5736561741        1.1824499677
 O        -8.9314043765        8.0930840960        2.2525539661
 C       -10.1477091444        9.0598859150        0.4802837003
 C       -10.4980806358        7.9389632028       -0.5838586240
 O        -9.7884585376        7.8433035300       -1.5773725005
 C       -11.6238665651        6.9106981859       -0.3530871785
 C       -11.9039083993        5.9270253935       -1.5449980384
 C       -10.4915167701        5.1822054004       -1.9089647397
 O        -9.9801912605        4.5974161810       -1.0126081975
 C        -9.8983264037        5.0541944295       -3.3950931331
 C        -8.5447985620        5.7096717559       -3.1822195712
 O        -7.8212861898        5.2458478699       -2.3487509055
 C        -8.2145732251        6.9138753115       -4.0618614095
 C        -9.7090980386        3.5438465835       -3.7447184231
 C       -10.8055191079        5.7691444230       -4.4215493233
 C       -11.2612889619        9.0912335279        1.6271981532
 C       -10.0477652657       10.3892308851       -0.2636381458
 C        -4.0573282778        5.9891393444        1.4794699584
 C        -5.1410781914        4.5930847988       -0.4003873129
 C        -8.7692418105        1.8830370510        5.4957593396
 C        -7.5607446474       -0.0930130880        4.6986337909
 C        -8.5508133669       -1.5724802544       -1.2315935485
 C        -8.7324354891       -0.0553742323       -3.2186956730
 C       -16.1523668273        0.2235691412       -3.1598082232
 C       -16.2468594029        2.8095481789       -2.7775972977
 H       -16.7315774292        2.8278435864        0.2053387773
 H       -15.0977481171        3.2849843065       -0.2572700002
 H       -15.3770161978        2.0828920916        1.1023733856
 H       -12.9216549927        0.0956384293       -3.5634038201
 H       -13.6437179587       -0.3787511040       -2.0093571511
 H       -11.9272296305        0.9265609313       -0.8324135271
 H       -11.2222898948        1.6082440227       -2.3590482971
 H       -10.1464159572        0.0109661297        0.5444348972
 H       -10.2028465985        1.7980082016        0.7224744480
 H        -7.7240638481        1.4181463725        1.4963981822
 H        -8.0792124713       -0.1367428603        1.8255510324
 H        -6.6152755648        3.7749585913        5.3784644727
 H        -7.7849728781        4.0297971399        4.0674849563
 H        -4.7384191045        4.1571122509        3.8302998358
 H        -5.7800874771        5.5784169712        3.9613964483
 H        -5.2990103276        7.9365683387        0.6269204815
 H        -6.2359581329        7.8183939138        2.1528073758
 H        -7.5506098208        8.4090926021       -0.5464091579
 H        -7.0371203926        9.7883907401        0.6091099779
 H       -12.5747816290        7.4463388119       -0.0853807740
 H       -11.4572923440        6.1890103910        0.4693239305
 H       -12.3982433201        6.3994149688       -2.3564503948
 H       -12.4978207232        5.0308705184       -1.2016355157
 H        -8.4290996110        6.7203650037       -5.1022521173
 H        -7.1818247814        7.2115673719       -4.1056482556
 H        -8.8665161476        7.7668927401       -3.7758021769
 H        -9.0213803117        3.2208750437       -3.0751322156
 H        -9.2918877011        3.3742834528       -4.7253150666
 H       -10.6372785032        3.0290284771       -3.5662386905
 H       -10.4407621178        5.6342395220       -5.3931003838
 H       -10.9540434806        6.8811974747       -4.3061736342
 H       -11.7848050617        5.2921103328       -4.2840193981
 H       -11.2502863828       10.0698654048        2.1722382386
 H       -11.2228827230        8.1952019375        2.3001851682
 H       -12.2308463549        9.2012122711        1.1365850386
 H       -10.9071518754       10.5993284660       -0.9137152416
 H        -9.2411032237       10.2987196978       -0.9628845262
 H        -9.9429432373       11.3604560957        0.2574601055
 H        -4.2447621212        6.6876741453        2.2739208867
 H        -3.6489464403        6.6685231929        0.6927390565
 H        -3.2257887002        5.3709353456        1.7423028560
 H        -5.5730889014        5.1350860059       -1.2483682412
 H        -5.6757232519        3.5971538716       -0.3509644511
 H        -4.0453269679        4.3968756667       -0.5668208835
 H        -8.2247745497        1.9664368472        6.3603617590
 H        -9.6080070779        1.3070463404        5.7244979435
 H        -9.1280627538        2.8336507323        5.3479394958
 H        -7.0482658006       -0.5633759532        3.7855196793
 H        -8.4258943116       -0.6747011299        4.8614736506
 H        -6.7762452268       -0.1052007831        5.4422702061
 H        -7.5196659932       -1.4303145915       -1.6352388280
 H        -8.9849079726       -2.3304570121       -1.8865711819
 H        -8.5500890619       -1.8060418661       -0.1700772072
 H        -9.4130568613       -0.4473746710       -4.0353348169
 H        -7.7423741857       -0.4526797280       -3.3928950051
 H        -8.6157531385        0.9692296673       -3.4817161653
 H       -16.5204747352        0.4302762043       -4.1487741268
 H       -16.9652750452       -0.1551922424       -2.5096700048
 H       -15.4765830048       -0.5851161640       -3.2225269568
 H       -16.6944284870        2.7253840769       -3.8023777223
 H       -15.6531051873        3.7589086598       -2.8160235965
 H       -17.0366946466        3.0875075768       -2.0797540281
 Na       -8.0371914516        3.8397675090       -0.4047493596
