117

 C       -15.8721856083        2.6310065198        0.1338686873
 C       -15.8003454389        1.3496822070       -0.7273742744
 O       -15.8420584778        0.2045914931       -0.2706912160
 C       -15.4928212249        1.5244774137       -2.2961643348
 C       -13.9328254889        1.8007451252       -2.2821588048
 O       -13.4319740965        2.8893875538       -2.2103409024
 C       -13.0230536202        0.5516472451       -2.4277763004
 C       -11.6286609576        0.7838242884       -1.8983606367
 C       -10.7928741076       -0.4602327649       -1.7356334236
 O       -11.2889370836       -1.5295990630       -1.8070991561
 C        -9.2130763478       -0.3565637909       -1.5561340258
 C        -8.8922370691        0.8173650166       -0.6059464544
 O        -8.0217369312        1.6063297943       -1.0079175878
 C        -9.5330705162        0.9421821466        0.8196317690
 C        -8.5154714346        0.7555183780        1.9701675128
 C        -9.0183591390        1.3611923103        3.2646924981
 O       -10.1370106759        1.8852932019        3.1925331450
 C        -8.0947309548        1.4386685067        4.5055604385
 C        -6.8496261001        2.2535545955        4.0454993593
 O        -5.9052508342        1.6947144814        3.5318639534
 C        -6.7887603138        3.8066360737        4.2719483467
 C        -5.6448321375        4.4098517960        3.4127567091
 C        -5.9447937276        4.2392792583        1.9754682689
 O        -6.7098300679        3.4039234726        1.5534725823
 C        -5.3099572322        5.2592266012        0.9248202299
 C        -6.4834126958        6.3255174748        0.6532571626
 O        -7.6168616068        5.9613456340        0.4268364827
 C        -6.3199396120        7.9683355150        0.8622742921
 C        -7.5170976148        8.6937188275        0.2017405917
 C        -8.8245239579        8.3745463244        1.0455539598
 O        -8.8269579302        7.6881542876        2.0540762594
 C       -10.1552731273        8.9843447254        0.3868203441
 C       -10.4774421062        7.9995866148       -0.8219336742
 O        -9.8425056182        7.9994654959       -1.8449621121
 C       -11.5502533607        6.9561436751       -0.5214159140
 C       -11.8791012688        6.0024452541       -1.7187217357
 C       -10.6666366708        5.0973709041       -1.9803338513
 O       -10.1954911574        4.2950735255       -1.1347976003
 C        -9.9715159751        5.1500625129       -3.3803439739
 C        -8.5869670236        5.8878870584       -3.2385038353
 O        -7.7268804231        5.2659235429       -2.5760219145
 C        -8.1681094242        7.0584518017       -4.0564997158
 C        -9.7935250435        3.7049829788       -3.9172195441
 C       -10.9005171121        5.8074233352       -4.4773439681
 C       -11.2965519195        9.1172801732        1.4358041752
 C        -9.9525861217       10.3468080402       -0.3073125083
 C        -3.9406241753        5.8189083320        1.4632559747
 C        -4.8275976127        4.3594133088       -0.3086920653
 C        -8.8122630780        1.9941194088        5.7199243485
 C        -7.5405302862        0.0314139787        4.8056573647
 C        -8.7468891113       -1.7314117726       -0.8603449815
 C        -8.6941855701       -0.1163417308       -2.9167362303
 C       -15.9611091714        0.3820812987       -3.1050943757
 C       -16.0958218826        2.8167768976       -2.8516691866
 H       -16.8404387358        3.1573761124       -0.1761281006
 H       -15.0343379810        3.3199411383       -0.0462492947
 H       -15.9088368043        2.3904167052        1.1469326186
 H       -12.9951162321        0.2864406159       -3.4534245495
 H       -13.4573161934       -0.3132534395       -1.9613216253
 H       -11.8496961825        1.1151046990       -0.8546330938
 H       -11.1396232401        1.5091748556       -2.5168633834
 H       -10.4506983960        0.2021471928        0.7891736251
 H        -9.9076536674        1.9417698644        0.8941387529
 H        -7.5391767134        1.2017473383        1.7016354638
 H        -8.2517660812       -0.3338448439        2.1258579025
 H        -6.5635593176        3.9126647961        5.3666491666
 H        -7.7383412670        4.2518280011        4.0263198690
 H        -4.6929436512        4.0577048011        3.7932259660
 H        -5.6777922818        5.4698355777        3.5293839479
 H        -5.3472870274        8.3748449273        0.4516397417
 H        -6.3277853136        8.0895636678        1.9256284248
 H        -7.5186706271        8.5029668785       -0.8450013382
 H        -7.4226662687        9.7263296911        0.4533043062
 H       -12.4686147459        7.2839726735       -0.0411720455
 H       -11.0695339341        6.2833993756        0.2164613959
 H       -11.9340882702        6.5962543347       -2.6691029420
 H       -12.7916654990        5.4766823426       -1.5875712972
 H        -8.1687298408        6.7248136460       -5.1175033096
 H        -7.1144898808        7.4144086680       -3.9472400967
 H        -8.8330427408        7.9349711588       -4.0128123023
 H        -9.1097684712        3.0741056275       -3.2696306958
 H        -9.3945507917        3.7364005454       -4.9227145624
 H       -10.7656397281        3.3062183564       -3.9598193962
 H       -10.4371800672        5.7015000508       -5.4929053365
 H       -11.0322205112        6.8484749864       -4.3791891555
 H       -11.8884020457        5.3870263954       -4.4246869512
 H       -11.2424219357       10.0762601482        1.8792776895
 H       -11.1007772133        8.3487288333        2.1387307313
 H       -12.2849873848        9.0688838308        1.0263850971
 H       -10.9097389630       10.7575972575       -0.6081106952
 H        -9.4136023876       10.3881424256       -1.2538253191
 H        -9.5789815681       11.0549406391        0.3955151150
 H        -3.9860180284        6.4164299940        2.4238170563
 H        -3.3921713182        6.3536563955        0.7575646582
 H        -3.2930644171        4.9764443982        1.6853026445
 H        -4.5333764679        5.0375460833       -1.1350069169
 H        -5.5666038627        3.6934139127       -0.6816111223
 H        -3.8918292840        3.9140943274       -0.0368253105
 H        -8.1745720310        2.1697983720        6.6372767017
 H        -9.6478649915        1.3546268875        6.1157346678
 H        -9.2183528262        3.0437362529        5.6036435106
 H        -6.8018954296       -0.3040892927        4.1507015021
 H        -8.3713821587       -0.7132202016        4.7815080369
 H        -7.0376894813        0.1419875714        5.7706067412
 H        -7.6857238025       -1.7464715708       -0.7872293355
 H        -9.1826197539       -2.6172690937       -1.3169186094
 H        -9.1026673669       -1.5713171863        0.1493600877
 H        -8.5780342042       -0.9817188385       -3.5114881337
 H        -7.6706949752        0.3017609056       -2.8155422919
 H        -9.2444345934        0.6245726275       -3.5457504632
 H       -16.2777902941        0.7148101643       -4.1145746984
 H       -16.7375842969       -0.1754168981       -2.6244991378
 H       -15.1388611689       -0.3636707629       -3.2720466908
 H       -15.6582283231        3.1404446006       -3.7857544895
 H       -15.9662619704        3.6540156593       -2.1688660258
 H       -17.2089195045        2.7850755901       -2.9717397000
 Na       -7.8375926962        3.7568789167       -0.4966416816
