117

 C       -16.0638835860        2.7116512944        0.2072985163
 C       -15.8055008874        1.4757925994       -0.7125296098
 O       -15.8760537032        0.3111532867       -0.3097677890
 C       -15.4015935085        1.6929490328       -2.1857076619
 C       -13.9015044347        1.8643892706       -2.2353700753
 O       -13.4671853294        2.9922344344       -1.9508845678
 C       -13.0202797029        0.5972422786       -2.2704739093
 C       -11.4886584622        0.8043766046       -1.8666435997
 C       -10.7502232747       -0.5434200047       -1.6358329302
 O       -11.4090878105       -1.5723598819       -1.8450108820
 C        -9.2290954939       -0.5576239974       -1.3185314737
 C        -8.8632226460        0.7638935559       -0.5203766477
 O        -8.2177942269        1.6417963511       -1.0416429542
 C        -9.4391479939        1.0717221800        0.9195583619
 C        -8.5334449934        0.7128425159        2.1266236560
 C        -8.9966374664        1.4215071957        3.3744591306
 O       -10.1232294184        1.8835126864        3.4235097151
 C        -8.0939750972        1.4505703173        4.6251093999
 C        -6.8655305443        2.2816416419        4.1527918841
 O        -5.9251954746        1.7076548105        3.5811193811
 C        -6.8331226260        3.7866788506        4.2994484389
 C        -5.7201638151        4.3446923502        3.4559345675
 C        -5.9141143962        4.2476664143        1.8860234791
 O        -6.7436040825        3.4829114394        1.4144120769
 C        -5.2162369305        5.2978372705        0.9334000135
 C        -6.4086893603        6.2614184583        0.5687703592
 O        -7.4826954453        5.7242042203        0.3112048348
 C        -6.2246272475        7.7172006168        0.6162434378
 C        -7.4175208131        8.4991525131        0.0981352783
 C        -8.7685129788        8.2376153904        0.8605791210
 O        -8.9611400416        7.5922749650        1.8981064730
 C       -10.0378998521        8.9783135289        0.3191889272
 C       -10.5485733513        7.9585399530       -0.8225756705
 O       -10.0809566433        8.0261102644       -1.9761341908
 C       -11.5435015285        6.8396813584       -0.4565858209
 C       -11.9143605694        6.0058350687       -1.7364043640
 C       -10.6944123879        5.0160672616       -2.0964929917
 O       -10.2404346397        4.2355169651       -1.3187988220
 C        -9.9609817653        5.1355637524       -3.5574671803
 C        -8.5351325605        5.7639543361       -3.3195255684
 O        -7.6588843011        5.3097247746       -2.6249858783
 C        -8.1792187097        6.9821632278       -4.1722326993
 C        -9.6614160803        3.6179084662       -4.0198709962
 C       -10.7254287899        6.0065810615       -4.5475475210
 C       -11.1069895358        9.0679575639        1.3828732689
 C        -9.6844715926       10.3962446547       -0.2920667638
 C        -4.1028538270        6.1114358055        1.6197335177
 C        -4.8755184214        4.6669144755       -0.4227655361
 C        -8.8589630799        2.1574864016        5.7258193031
 C        -7.7725943890       -0.0367976790        4.9905578581
 C        -8.8376066061       -1.8622163149       -0.6071826139
 C        -8.4687517109       -0.4745452396       -2.7268103548
 C       -15.7850655609        0.4000385264       -3.0184303602
 C       -16.1290822748        2.9290036834       -2.8506434134
 H       -16.8185267808        3.3118205529       -0.1801930784
 H       -15.1540708873        3.2716301497        0.2107794487
 H       -16.2431165642        2.4089664970        1.2711209648
 H       -13.1546074323        0.1005179242       -3.2720494516
 H       -13.5210049185       -0.1333314771       -1.6023881738
 H       -11.4596522741        1.5052560685       -1.0439285988
 H       -10.9941043424        1.2246857560       -2.7945786347
 H       -10.3948959668        0.6796235421        1.0389335186
 H        -9.6285075988        2.1831149644        0.9354048517
 H        -7.4619274732        0.9069094043        2.0356517654
 H        -8.6070898421       -0.3608464355        2.3007766582
 H        -6.7518564982        4.0215069163        5.3457491832
 H        -7.7904923647        4.1730224379        3.8887378729
 H        -4.8135671084        3.7729961461        3.7272323111
 H        -5.5814766137        5.3949092348        3.8198142091
 H        -5.2849313371        8.0295737107        0.2009253291
 H        -6.1376649119        7.9514883061        1.7398147592
 H        -7.6694291536        8.2078406733       -0.9646802721
 H        -7.1462520146        9.5953138313        0.1382535787
 H       -12.5237352282        7.2102995293       -0.1673324220
 H       -11.2202655924        6.2286361022        0.3745970410
 H       -12.3007605203        6.6219341848       -2.5081801099
 H       -12.7900114028        5.3764637525       -1.3922761752
 H        -7.9966300948        6.8375925978       -5.2344655630
 H        -7.2333776318        7.3002107833       -3.8132312183
 H        -8.7790770260        7.8522436362       -4.0966135593
 H        -9.2270221174        3.1099688117       -3.1490350094
 H        -8.9306399735        3.6043531915       -4.8645299686
 H       -10.6295754575        3.1064390192       -4.4029792830
 H       -10.2521506082        6.0661481484       -5.4999671397
 H       -10.8014209467        7.0556816677       -4.1655126752
 H       -11.7637388600        5.6569046105       -4.6905685242
 H       -10.6396723403        9.5133609868        2.2801569586
 H       -11.4712245837        8.0709153812        1.6335965206
 H       -11.9057904618        9.7237157322        0.9454388780
 H       -10.5451600369       11.0413433945       -0.5456960978
 H        -9.2179089737       10.3119559915       -1.3042546040
 H        -9.0447562531       10.9646761779        0.4324389782
 H        -4.3915697744        6.7152958406        2.4369210602
 H        -3.5214730212        6.6768015159        0.7971448427
 H        -3.3250419465        5.4347178611        2.0439539906
 H        -4.0403366029        5.1222753294       -0.9101384914
 H        -5.8100881210        4.7219141619       -1.0173443238
 H        -4.4739828234        3.6626404220       -0.2426110291
 H        -8.2937789038        2.4522425368        6.6031604481
 H        -9.5985349494        1.5024041533        6.1454582558
 H        -9.3596371002        3.0701679141        5.4482696750
 H        -7.1156664804       -0.4764858195        4.1998847345
 H        -8.6649092742       -0.6259123939        5.0398450500
 H        -7.2771826249       -0.0678612322        5.9600974278
 H        -7.7782370509       -1.7520919299       -0.3882705492
 H        -9.0827839450       -2.6786344903       -1.2625298466
 H        -9.3464727808       -1.9634343292        0.3559536874
 H        -8.1832476285       -1.4169918318       -3.2517617424
 H        -7.5260707164        0.0335795774       -2.6459307703
 H        -9.0828912825        0.1195021051       -3.3722409602
 H       -15.4626324708        0.4587191770       -4.0426028978
 H       -16.8984027542        0.2791327454       -3.0266850968
 H       -15.3673364608       -0.4725833977       -2.5729419652
 H       -15.6100470023        3.2395975037       -3.7497475792
 H       -16.1164842268        3.7999614688       -2.2134809338
 H       -17.1344346459        2.6811352005       -3.1640744765
 Na       -8.0360975487        3.9437650569       -0.8020145619
