117

 C       -16.5404330148        2.9759688101        0.1376298913
 C       -15.9682352653        1.7555081535       -0.6360102161
 O       -15.7321924082        0.6271150734       -0.1432956095
 C       -15.3452436336        2.0156596770       -2.0723398706
 C       -13.7360460148        1.8628377293       -1.9009537856
 O       -12.9856487302        2.8776758448       -1.8509182180
 C       -13.1023939344        0.4459839745       -1.6858050242
 C       -11.5761961932        0.5153955193       -1.5606829026
 C       -10.9185815342       -0.8700453470       -1.2921361172
 O       -11.4500294346       -1.9216739691       -1.5635164140
 C        -9.4607667332       -0.8601518075       -0.6832698329
 C        -8.9729114618        0.6274140575       -0.3581234259
 O        -8.2546674583        1.1585688880       -1.1760792998
 C        -9.4909686172        1.2906073693        0.9512759811
 C        -8.5724146538        1.0700528899        2.1305731211
 C        -9.1899603824        1.4924769148        3.4921902621
 O       -10.3672975968        1.8951138878        3.4828065547
 C        -8.2921746241        1.3629979879        4.7630333337
 C        -6.9272024551        2.0453923243        4.3960938877
 O        -5.9177910296        1.3186364624        4.3374716032
 C        -6.8630670172        3.5677134031        4.1275130500
 C        -5.7407341284        4.1895844717        3.1703464354
 C        -6.0974510421        4.4792487040        1.7495905325
 O        -7.0292691731        3.8896646631        1.1504666822
 C        -5.2410006896        5.4599398372        0.8548670032
 C        -6.2882054967        6.4757654529        0.2679995576
 O        -7.1366719420        6.0025369707       -0.4613552376
 C        -6.2402447679        7.9737165644        0.4378158422
 C        -7.4067682780        8.6848210086       -0.2077953181
 C        -8.7003335039        8.4808342830        0.5450376962
 O        -8.7250524229        7.7466326782        1.5483107087
 C       -10.0769392865        9.0043118275        0.0416167566
 C       -10.4625320565        8.0714705152       -1.1576901742
 O        -9.9506589033        8.1314047553       -2.2796192956
 C       -11.5258831544        7.0006874081       -0.8541555473
 C       -11.7306570066        5.9902671538       -1.9273769553
 C       -10.3938122827        5.1616857424       -2.1926920314
 O        -9.8741903912        4.5836123463       -1.2452984146
 C        -9.8734013760        5.0683502643       -3.7275448631
 C        -8.3737354700        5.4988591132       -3.7581599136
 O        -7.5157449698        4.7726251039       -3.2330005578
 C        -8.0219235598        6.9278747041       -4.2783470722
 C        -9.9486282918        3.5062839946       -4.1336900447
 C       -10.8392776286        5.9580082033       -4.6432471715
 C       -11.1191983092        8.8961118335        1.1772646302
 C        -9.8952111793       10.4595009071       -0.5632950436
 C        -4.2103717635        6.2605258728        1.6922820135
 C        -4.7118540497        4.6986533327       -0.3971191186
 C        -8.9753031234        2.0284384780        5.9425019507
 C        -7.9551173292       -0.1207707676        5.0626487937
 C        -9.5542925725       -1.5393549215        0.6479008142
 C        -8.4243352885       -1.6330245784       -1.6132706600
 C       -15.8778337409        0.9414432001       -3.0175163438
 C       -15.5288200660        3.4879749755       -2.6063395490
 H       -17.3406615246        3.3494276279       -0.4434176537
 H       -15.7316601525        3.7247944979        0.2776566940
 H       -16.9322945965        2.6368998814        1.1633975839
 H       -13.2751614554       -0.1335763848       -2.5950052336
 H       -13.4987204531       -0.0612033358       -0.8328139924
 H       -11.2189622885        1.3148078424       -0.9192808408
 H       -11.1352937720        0.9452902806       -2.4539931626
 H       -10.4885818750        1.0153671406        1.2135316017
 H        -9.6143575742        2.4125282286        0.6904862069
 H        -7.5906208551        1.6051354450        1.9751939578
 H        -8.4088267126        0.0212396840        2.2866938701
 H        -6.7427635340        3.9728279536        5.1208390393
 H        -7.8630727329        3.9753416654        3.8172214318
 H        -4.8280751258        3.6211316510        3.2747319166
 H        -5.5557744181        5.1628237826        3.6618215406
 H        -5.2653690174        8.3443956602        0.1644416780
 H        -6.2136502398        8.2678525749        1.5369351102
 H        -7.6261219079        8.2901705037       -1.1855749684
 H        -7.2644937743        9.6991527475       -0.4680770816
 H       -12.4763623744        7.5169633090       -0.5276972403
 H       -11.1255788528        6.4827695651        0.0761210220
 H       -12.2654688901        6.3664605041       -2.7609974805
 H       -12.4581473184        5.2669636585       -1.4615430961
 H        -7.8790451152        7.0617147151       -5.3565847163
 H        -7.2054800459        7.3747964114       -3.7140605250
 H        -8.8150933538        7.6489885758       -4.1157161542
 H        -9.5253676869        3.0206960125       -3.2941329311
 H        -9.4081131484        3.2463921830       -4.9598128560
 H       -10.9540070166        3.1895923631       -4.1961313349
 H       -10.4938893027        6.0950532656       -5.6300312654
 H       -10.9457496188        6.9722046810       -4.1626076946
 H       -11.8661101550        5.5861210905       -4.7731815838
 H       -10.6890456963        9.4478330403        2.0308868712
 H       -11.1836689645        7.8411622161        1.4045621444
 H       -12.0764184623        9.3564365742        0.8172615307
 H       -10.8467802734       10.8728328893       -0.7917872045
 H        -9.2252886589       10.2893202495       -1.3900173983
 H        -9.3851754130       11.1264278769        0.0913615647
 H        -4.5839465365        6.7740214077        2.4979080660
 H        -3.8746791871        7.0303811365        0.9565449378
 H        -3.3995298566        5.6174406995        1.9384389032
 H        -4.4194273157        5.4916284935       -1.0617946832
 H        -5.5886605367        4.1475545305       -0.7995256512
 H        -3.9616993038        3.9317789722       -0.1038728953
 H        -8.3912153810        1.8573630187        6.8112220298
 H        -9.9515320521        1.7138779150        6.0773591921
 H        -8.9764423366        3.0705837415        5.8171212296
 H        -7.1356099455       -0.3917961538        4.3205693141
 H        -8.8142507859       -0.7807621077        4.9571707599
 H        -7.5506610295       -0.2438637585        6.0853482884
 H        -8.5200890389       -1.7251422909        1.0199160904
 H       -10.0140197619       -2.5104427897        0.4551729741
 H       -10.1647264654       -0.9598044380        1.3436343208
 H        -8.7983516566       -2.7112601153       -1.7213907072
 H        -7.3957121377       -1.6572335608       -1.1808475027
 H        -8.3646849446       -1.2521960381       -2.6244581174
 H       -15.3706208289        0.9580580484       -3.9655567107
 H       -16.9822697768        0.9490826299       -3.1510570844
 H       -15.6421658097       -0.0003024209       -2.5697002349
 H       -14.7469132224        3.5997375259       -3.4126798549
 H       -15.2879286179        4.2146281881       -1.7757087706
 H       -16.5491780993        3.6710119790       -2.9530586072
 Na       -7.7686416937        3.5875866963       -1.2140531142
