117

 C       -16.7198968758        2.9007759723        0.1358214316
 C       -15.8032970924        1.9068520157       -0.5718114018
 O       -15.6192927343        0.8246566872        0.0102486170
 C       -15.1936902577        2.2337078672       -2.0361918298
 C       -13.6500248941        1.8555664866       -1.9832536324
 O       -12.7886025386        2.7696495810       -2.1753598124
 C       -13.1476184194        0.3847955940       -1.7306541018
 C       -11.6611671619        0.4423154219       -1.3178690996
 C       -11.0141378076       -0.9228152463       -1.1419826131
 O       -11.4200097406       -2.0119938215       -1.4513748942
 C        -9.5998351882       -0.8481825685       -0.3743204371
 C        -9.2026120557        0.6364625162       -0.2704812431
 O        -8.4397424190        1.1556637220       -1.1116179981
 C        -9.4969133949        1.4599442169        0.9428355015
 C        -8.4857556114        1.2849714380        2.0907272303
 C        -9.1019981322        1.6792777066        3.4711190493
 O       -10.3272644142        1.8908810631        3.5274379382
 C        -8.1958230932        1.4785505432        4.7178881921
 C        -6.8871462107        2.2775937188        4.3911428257
 O        -5.7171927583        1.8592708021        4.3734485896
 C        -7.1325473806        3.7756999000        3.9154679664
 C        -5.9032900680        4.2515808478        3.1537539219
 C        -6.1859215785        4.3551349737        1.6428958398
 O        -7.1538466607        3.7098640715        1.1228812812
 C        -5.3586392696        5.3855649752        0.8349368438
 C        -6.3740337492        6.3712351788       -0.0026086832
 O        -7.2051971143        5.8729335447       -0.7681120113
 C        -6.2555836467        7.8313839474        0.2728868103
 C        -7.4380983444        8.7236559087       -0.1157871574
 C        -8.7479607209        8.4977229149        0.6865375648
 O        -8.7930687259        7.7654480182        1.6836384519
 C       -10.1195510646        9.1638620898        0.0574375824
 C       -10.5126031097        8.0119744007       -0.9770845736
 O        -9.9186746370        7.9940958518       -2.0606744480
 C       -11.5586503023        6.8735992242       -0.7377167224
 C       -11.6308406848        5.9878308046       -1.9807106610
 C       -10.3556996838        5.2776472302       -2.3638240891
 O        -9.8006163162        4.7591019714       -1.4000679100
 C        -9.8236422063        4.8403622395       -3.8584196357
 C        -8.2322693630        5.1347111567       -3.9166123318
 O        -7.4271065190        4.4137328087       -3.4117683197
 C        -7.7214897616        6.4628525056       -4.3967553015
 C       -10.0987226207        3.3211099392       -3.9159950235
 C       -10.5897654706        5.6361906832       -4.8748065308
 C       -11.1402326071        9.4175263897        1.2140425630
 C        -9.7033706962       10.4545885541       -0.7228774901
 C        -4.4208460809        6.1955232565        1.7266150546
 C        -4.5240061476        4.4694611513       -0.2702830514
 C        -8.7651572489        2.0595873765        6.0015560871
 C        -8.0430542687       -0.0349438809        4.8842824381
 C        -9.8228891649       -1.5339614350        1.0019728538
 C        -8.6045371772       -1.6399067076       -1.3437052884
 C       -15.9474194161        1.2822423814       -3.0187922116
 C       -15.4233283230        3.6799486170       -2.5405251305
 H       -17.2371458804        3.5032601151       -0.5055934532
 H       -16.0660047750        3.4596227647        0.7868936460
 H       -17.4860796508        2.3322417671        0.7010439590
 H       -13.1454856476       -0.1631562183       -2.7090795219
 H       -13.7804574981       -0.1741403071       -0.9712178859
 H       -11.5420078482        1.0474573541       -0.3842792133
 H       -11.0783700916        1.0783886506       -1.9707670819
 H       -10.4846308419        1.2055086230        1.3611520755
 H        -9.4628261473        2.4977368207        0.5561572379
 H        -7.6822842766        2.0002002275        1.8675032820
 H        -8.0693170432        0.3430401815        2.1791458673
 H        -7.3831493639        4.3750870325        4.7927834130
 H        -8.0152500684        3.8876903202        3.2945975269
 H        -5.0796560429        3.5449320168        3.4608943759
 H        -5.6091650569        5.2076184891        3.5941276344
 H        -5.3099992906        8.1990886204       -0.2009067221
 H        -6.0434545345        8.0312989239        1.3195943443
 H        -7.7936082409        8.4633534444       -1.1523625846
 H        -7.1859178070        9.8014885041       -0.2876428292
 H       -12.5039593478        7.3756425677       -0.5561614997
 H       -11.2274117024        6.3535530389        0.1827492397
 H       -12.2288021611        6.3912852313       -2.8036720566
 H       -12.2547563520        5.1770472879       -1.5955476742
 H        -8.0484533614        6.7537362828       -5.3537286271
 H        -6.6256466213        6.4758837587       -4.3269512687
 H        -8.0767069003        7.3272282329       -3.8078031526
 H        -9.3818828819        2.7290123978       -3.3107378609
 H        -9.8747905530        2.9829271430       -4.9738369753
 H       -11.2108251284        3.1279417115       -3.6189434697
 H       -10.2314909325        5.5063699590       -5.8725539328
 H       -10.5976632460        6.7448922211       -4.6894997526
 H       -11.6195239084        5.3083452256       -4.8099431857
 H       -10.8289567542       10.3060755229        1.7753202096
 H       -11.0887219667        8.5343515967        1.8352664379
 H       -12.0997854128        9.6441285803        0.8183286795
 H       -10.6828311875       10.9575998503       -0.9723595140
 H        -9.2304891924       10.1476819564       -1.6436662320
 H        -9.0404778518       11.1019434994       -0.0781632840
 H        -5.1092257395        6.6368326812        2.4643805588
 H        -3.8604022034        7.0107790230        1.1699245530
 H        -3.6858665794        5.5213441772        2.1841089619
 H        -3.6417815632        5.0166432273       -0.4928619750
 H        -5.1238375572        4.3305206154       -1.1557207956
 H        -4.4855277513        3.5197198818        0.1953752659
 H        -7.9827423852        1.9117169501        6.7989160727
 H        -9.7219264878        1.5515557195        6.2752504977
 H        -8.9225844281        3.1699292890        5.9620466554
 H        -7.7535605470       -0.5023285079        3.8977612836
 H        -9.0009569146       -0.3987025489        5.0813087601
 H        -7.2816982913       -0.3507387167        5.5572729688
 H        -8.8502932012       -1.8082588825        1.4371539328
 H       -10.3330845617       -2.4547509305        0.7696738099
 H       -10.4020720931       -0.9288250039        1.6246646512
 H        -8.2828206950       -2.6020379944       -0.8834332434
 H        -7.8264266669       -0.9751955251       -1.6628801161
 H        -9.0995491476       -1.9508904559       -2.2272306558
 H       -15.2992100514        0.9641447252       -3.8499089640
 H       -16.8955348138        1.6971098455       -3.3550995491
 H       -16.2498628483        0.3897998593       -2.4878748926
 H       -14.8964286791        3.6981147610       -3.4714424651
 H       -14.9463517168        4.3213182029       -1.8223949373
 H       -16.4204507232        3.9484521101       -2.6091567287
 Na       -7.7114410160        3.4971923589       -1.2779208785
