117

 C       -11.3258531903       10.8628350042       -3.4957184002
 C       -10.7871436522        9.4535453544       -3.8760814353
 O       -10.9367201679        8.4811046819       -3.0608177120
 C        -9.9855111359        9.3327290921       -5.2619240051
 C        -8.5747523501       10.0303308338       -4.7627766502
 O        -8.3073101362       11.1412004720       -5.0823675889
 C        -7.7255390746        9.1488684043       -3.7826203056
 C        -7.5671698905        9.9592303666       -2.4977835261
 C        -6.6990744873        9.3325551887       -1.3729687637
 O        -5.6653806778        8.8500165767       -1.7363785127
 C        -7.2238959369        9.4817146467        0.1080059579
 C        -8.5260564219        8.5251127720        0.1254342016
 O        -9.5846360774        9.0588689205        0.3950755059
 C        -8.3054714175        6.9850230716       -0.2673935531
 C        -9.4712550222        6.2234483762       -1.0369304383
 C        -9.5088719582        4.7752418070       -0.8418051127
 O        -8.8186406183        4.1587661233       -0.0262233424
 C       -10.3399828189        3.9584168390       -1.9696499521
 C       -11.3556671399        3.1137049941       -1.1152561258
 O       -11.0276313873        2.0284439999       -0.6532606327
 C       -12.7771929499        3.7671186905       -0.6713620557
 C       -13.1664598964        3.2298715684        0.6812729181
 C       -12.3221858073        3.5863370512        1.9185640682
 O       -11.5237455262        4.4695931319        1.8085747610
 C       -12.4734863912        2.8049531621        3.3917962131
 C       -11.7542395012        1.4973082218        3.5510499725
 O       -10.6118730501        1.3688939629        3.0197597060
 C       -12.1972735876        0.3529880770        4.5389018634
 C       -11.6307340388       -1.0535133613        4.3756897317
 C       -12.2342570789       -1.7364786831        3.0143184393
 O       -13.0435393610       -1.2065825385        2.2816180740
 C       -11.7180706061       -3.2088243747        2.6766621552
 C       -10.4164717958       -2.9337109626        1.8201939324
 O        -9.4223517073       -2.6494300085        2.5317517451
 C       -10.2885981963       -3.0458650882        0.3209454325
 C        -8.8907521486       -2.6319934718       -0.1875284891
 C        -8.5242016953       -1.1219117416        0.0808134838
 O        -9.4183533909       -0.2719555070        0.2977777873
 C        -7.0033260819       -0.8035930986        0.0025001172
 C        -6.8005174489       -0.1164537272        1.3969735623
 O        -7.1279893836        1.0563239966        1.5937036185
 C        -6.1782960919       -0.9027381825        2.5264592765
 C        -6.0189744641       -1.9273501264       -0.3879793082
 C        -6.7060990278        0.3870715940       -1.0016242414
 C       -11.2326540725       -3.9245126389        3.9142717597
 C       -12.8040538499       -3.9752062588        1.8766080797
 C       -11.8148577596        3.6852407420        4.5092492420
 C       -13.9876113453        2.6485860067        3.6420499439
 C       -11.1830736331        4.8821265223       -2.9277120269
 C        -9.3450153837        3.0697644917       -2.7394015245
 C        -6.1369186725        8.9602671262        1.1222436607
 C        -7.6316229986       10.9528415729        0.4200297450
 C        -9.6127193982        7.8722956312       -5.7004769375
 C       -10.7280850307       10.1138231224       -6.3841740103
 H       -11.0171857602       11.7087542455       -4.1365632029
 H       -10.9158224845       11.0150854602       -2.5426888112
 H       -12.3840320687       10.8190949705       -3.5533543235
 H        -6.7577130927        9.0377820469       -4.1852180360
 H        -8.1973455632        8.1906456141       -3.4382179187
 H        -8.4652742803       10.2226711780       -1.9631058097
 H        -7.1938752783       10.9848281375       -2.7208366191
 H        -8.0134544192        6.4264176824        0.6330776647
 H        -7.4587323973        6.8211783718       -0.9769432126
 H        -9.5027339068        6.4518525064       -2.1026319321
 H       -10.3712422517        6.6100320110       -0.6548055511
 H       -13.4061464261        3.3378450126       -1.5009617168
 H       -12.5703428418        4.8052706053       -0.8016896686
 H       -13.2536847796        2.1540715029        0.6275219740
 H       -14.2556456796        3.4595146068        0.8448192933
 H       -13.2961112371        0.2228881263        4.7121327542
 H       -11.7293233942        0.6877469555        5.5002578267
 H       -11.9350244370       -1.6212511918        5.2886562209
 H       -10.5430839377       -1.1097514862        4.3333682270
 H       -11.0687052574       -2.3981247176       -0.1471534270
 H       -10.5078872899       -4.0387807912       -0.0732550290
 H        -8.7965817667       -2.8157727698       -1.2724632725
 H        -8.1831623539       -3.1754853968        0.4032784019
 H        -6.8291365919       -1.6902002845        2.9996097620
 H        -6.0506336138       -0.2341474020        3.2862121760
 H        -5.2312616535       -1.4586124388        2.3313135608
 H        -5.9830488388       -2.1495342632       -1.5315443065
 H        -6.1709505376       -2.8629946880        0.0912648693
 H        -5.0776159022       -1.6712442388       -0.0364221416
 H        -6.5730126830        1.3176401189       -0.4796191771
 H        -7.5048532627        0.6355961236       -1.6299040234
 H        -5.8083081335        0.2749195043       -1.5868161162
 H       -11.7574479079       -3.3738064671        4.6762220386
 H       -10.2094966056       -3.6293873942        4.0964889452
 H       -11.2930631300       -5.0488160964        3.9714614989
 H       -13.7992350041       -3.7727882001        2.2025316895
 H       -12.6667418650       -5.0432771314        1.9141493664
 H       -12.7598924710       -3.6015636075        0.8763165098
 H       -12.3082399838        4.5869482667        4.7304952336
 H       -10.8167775845        3.9196125941        4.1867999376
 H       -11.8025272660        3.0896215392        5.4417249963
 H       -14.5362091716        3.5940835796        3.7355584864
 H       -14.1416234756        2.0685721776        4.5576363108
 H       -14.4206503264        1.8704700119        2.9022645977
 H       -11.9228947296        4.2680413934       -3.4764777671
 H       -10.6113356731        5.3848469219       -3.6726780920
 H       -11.6937556667        5.5892220107       -2.2794862799
 H        -9.1123213813        2.0903988424       -2.3200954829
 H        -8.3583964250        3.5323021065       -2.8037135648
 H        -9.6238222235        2.8963962151       -3.7923172317
 H        -5.3613244105        9.7512511371        1.1166718239
 H        -5.6272274646        8.0223404363        0.9660537445
 H        -6.5827713422        8.9690166162        2.1247765490
 H        -7.7233952797       11.5166661229       -0.5150222685
 H        -6.8642314370       11.3404308224        1.0594096180
 H        -8.5628471848       10.9546449252        1.0293510402
 H        -9.3030390036        7.2442422507       -4.8875360346
 H        -8.8739846926        7.8789865701       -6.5044092299
 H       -10.5464846043        7.3665984792       -6.0437715335
 H       -10.9007444841        9.5174243038       -7.3388847601
 H       -10.3037956417       11.0898979600       -6.6706156758
 H       -11.7019877652       10.3516728231       -6.0674457548
 Na       -9.1911032174        1.9274880267        0.9570537856
