117

 C       -16.7678237543        3.0333659287        0.0398346917
 C       -15.7355648067        2.0231848592       -0.5888442464
 O       -15.3213453594        1.0683096798        0.0698207139
 C       -15.2576995124        2.2660795451       -2.0548728892
 C       -13.7004705295        1.9569181385       -2.1272484534
 O       -12.9394811612        2.9274083833       -2.3790280164
 C       -13.0892312789        0.5895035624       -2.0147418053
 C       -11.8471017126        0.5716321058       -1.1166640717
 C       -11.1696270797       -0.7596008332       -0.9890187127
 O       -11.5943468095       -1.7677108838       -1.4996968307
 C        -9.7814481758       -0.7846930018       -0.2779853177
 C        -9.2839267717        0.6702688993       -0.1456602520
 O        -8.6939975682        1.1937731365       -1.1099766866
 C        -9.5297028122        1.5198472666        1.1718892969
 C        -8.6163294555        1.0170596676        2.3025122622
 C        -9.1087871636        1.5807833168        3.6373248747
 O       -10.2335320138        2.0110415688        3.8280133947
 C        -8.0916149593        1.6411131654        4.8990332498
 C        -6.9536046888        2.6013247754        4.3858642987
 O        -5.8404438465        2.1665876912        4.2363241963
 C        -7.3351811377        4.0684052232        3.8975048613
 C        -6.2394504117        4.8443262501        3.1479636859
 C        -6.1587561394        4.5194404395        1.6692237309
 O        -6.9171317555        3.6448809893        1.2446922857
 C        -5.1836644130        5.2527884996        0.6012171490
 C        -6.1923542931        6.2847518436       -0.0748839795
 O        -6.7392836499        5.9333248590       -1.0824493750
 C        -6.2645698560        7.7155852029        0.4687163994
 C        -7.3409251112        8.5120589278       -0.2937110411
 C        -8.6754520557        8.4725469206        0.4682289821
 O        -8.6851096780        8.1109220755        1.6313960761
 C       -10.0922714265        9.0223378408       -0.1935747684
 C       -10.3232802907        8.0127796465       -1.2548354573
 O        -9.6105995944        7.9676186938       -2.2324992159
 C       -11.5282472447        6.9870465640       -1.0389936239
 C       -11.6500474802        5.9121933742       -2.0915865554
 C       -10.3890091836        5.0062619002       -2.2670570277
 O        -9.7099023906        4.7097705560       -1.2624383813
 C        -9.8492611286        4.5975599014       -3.6361428993
 C        -8.2200391542        4.7253149963       -3.7311924863
 O        -7.4336628068        3.9929504332       -3.1762209661
 C        -7.6073536191        5.7654557615       -4.6887632534
 C       -10.1217865087        3.0856701263       -3.7658249184
 C       -10.6117478097        5.3713799101       -4.7793588965
 C       -11.1755789830        8.9903972156        0.8878647454
 C        -9.8818967756       10.4987544121       -0.6839506973
 C        -4.1213034966        6.0099788611        1.4230316500
 C        -4.6371496840        4.3092386485       -0.4491198268
 C        -8.9348437419        2.0024799750        6.1905559945
 C        -7.5510875623        0.1864704187        5.1957603384
 C       -10.0823635544       -1.6376605552        1.0049471289
 C        -8.6956775879       -1.5698023905       -1.2419686757
 C       -16.0681332361        1.4771364981       -3.1159060003
 C       -15.4338280472        3.7647741879       -2.3858017118
 H       -17.7396083510        2.9734396318       -0.3579540342
 H       -16.3514797464        4.0341095168       -0.0246180195
 H       -16.8834272725        2.7366442585        1.1179350704
 H       -12.8185105438        0.2469291685       -3.0212899628
 H       -13.8702572321       -0.1247724279       -1.7013740399
 H       -12.1560666200        1.0014677529       -0.1303214142
 H       -11.1318427344        1.2460862119       -1.5625102855
 H       -10.5530895505        1.3333630143        1.4340756690
 H        -9.3023912128        2.6011557313        0.9037401647
 H        -7.5389225879        1.2910031908        2.0643606874
 H        -8.6470988588       -0.0201459500        2.3964123373
 H        -7.7465786250        4.6933873428        4.6890287205
 H        -8.1713143186        3.9630402125        3.1942486373
 H        -5.2641021395        4.7861742390        3.6272306133
 H        -6.4762648869        5.8946878824        3.2676733160
 H        -5.3412907325        8.2855395937        0.3536912550
 H        -6.5444549638        7.7010700855        1.5104468174
 H        -7.4016354594        7.9498751910       -1.2665711438
 H        -7.0899818186        9.5506569339       -0.6067394044
 H       -12.3650351084        7.6296517365       -1.0351675499
 H       -11.3919811178        6.5269343451       -0.0737923891
 H       -12.0133633049        6.2942125434       -3.0426078671
 H       -12.4391636015        5.2453107700       -1.6660625561
 H        -8.3712818635        6.1233984182       -5.3953435636
 H        -6.7757143715        5.3805298965       -5.3097239934
 H        -7.2243565613        6.7171026961       -4.2699156577
 H        -9.6690931062        2.5326515754       -2.8594825083
 H        -9.7313906421        2.6828503785       -4.6968923339
 H       -11.2177467689        2.9478091749       -3.7240470507
 H       -10.3213629854        5.0807071590       -5.7454326223
 H       -10.5027222254        6.4880378298       -4.7246155774
 H       -11.6536229816        5.0952311830       -4.6529684737
 H       -10.8867052546        9.6456418065        1.6671155193
 H       -11.1976628497        8.0308959300        1.2907374113
 H       -12.1291206589        9.2606361150        0.4540843482
 H       -10.6779812012       10.8545613464       -1.3096891299
 H        -9.0363838786       10.4313983814       -1.3704110240
 H        -9.7355927442       11.0619127718        0.2171814431
 H        -4.5278533089        6.7697346431        2.0256921049
 H        -3.4365124858        6.4774810948        0.6332368964
 H        -3.4991613210        5.3732056283        2.0379098035
 H        -4.6004825694        4.9229995506       -1.3146495620
 H        -5.3833316407        3.5323408011       -0.6037987496
 H        -3.6700135968        3.9479902599       -0.1049323972
 H        -8.1456609777        2.0579117861        7.0206430966
 H        -9.6145196060        1.1338642674        6.3875881331
 H        -9.5077420249        2.9820482423        6.0443038865
 H        -6.8771504191       -0.2514985368        4.4067323208
 H        -8.3458425065       -0.4966990311        5.3376468492
 H        -6.9271358050        0.2664524232        6.0609198777
 H        -9.1133568685       -1.9648927138        1.4561198121
 H       -10.7031068551       -2.4645164189        0.6690662482
 H       -10.6658347307       -1.0713252864        1.7208357647
 H        -7.7145512477       -1.0423007344       -1.0275725719
 H        -9.0053067299       -1.4240479751       -2.2525592492
 H        -8.5976810827       -2.6135132339       -1.0275648764
 H       -16.1282104022        2.1110330536       -4.0168938491
 H       -17.1282230506        1.3950720672       -2.7731616248
 H       -15.6881290485        0.5050422080       -3.3736547982
 H       -15.1224002691        3.8622467524       -3.4449630925
 H       -14.8357106974        4.3913220319       -1.6815267317
 H       -16.4959588049        3.9288276573       -2.3355387686
 Na       -7.8452703405        3.4286372581       -0.9935801644
