117

 C       -16.8239649478        2.8519497585        0.0505423573
 C       -15.6678719498        2.1350411736       -0.6092617543
 O       -15.0702645549        1.2258998173        0.0022978465
 C       -15.2981206448        2.5018013725       -2.0857022109
 C       -13.8063409172        2.1991594774       -2.2651342027
 O       -12.9442911173        3.0953936274       -2.4215512928
 C       -13.2206417125        0.7886907152       -2.1063298161
 C       -12.1204449197        0.7425727309       -1.0693032386
 C       -11.3929147655       -0.6219920193       -1.1369146809
 O       -11.7685506632       -1.5541388266       -1.7910687523
 C        -9.8949768855       -0.7731426798       -0.3503495853
 C        -9.3476148288        0.5837942417        0.0085472045
 O        -8.6194654824        1.1822275504       -0.8151859529
 C        -9.6951501169        1.2490536268        1.3082020826
 C        -8.6635395216        0.9999273664        2.4818033304
 C        -9.0512975862        1.6354492315        3.8016298760
 O       -10.2060810333        1.9511525270        4.0633495167
 C        -7.9285094587        1.8512364900        4.8829401268
 C        -6.9258161969        2.9200797951        4.3253522869
 O        -5.7920862380        2.5581803047        4.1507431235
 C        -7.3606525290        4.3802064352        3.9886295961
 C        -6.2776453339        5.0364673342        3.1607389225
 C        -6.2616002108        4.4669189072        1.7322678680
 O        -7.0774073494        3.6209245485        1.3880435774
 C        -5.2307283736        5.1247362730        0.7452719587
 C        -6.1137353065        6.1684391184       -0.0520218563
 O        -6.9580479975        5.7956848516       -0.8812058091
 C        -6.0958932060        7.6008724491        0.3299621132
 C        -7.2654129888        8.4389079481       -0.3348539544
 C        -8.6103935476        8.4283988623        0.4882279461
 O        -8.6277364691        8.2189297565        1.7083564637
 C        -9.9525223829        8.8954599845       -0.1811637849
 C       -10.3084322741        7.8837507839       -1.3046673235
 O        -9.6635100228        7.8652239487       -2.3335523599
 C       -11.6349570782        6.9393393268       -1.2250293711
 C       -11.5629004362        5.9334331760       -2.3455114098
 C       -10.3514048358        4.9903908565       -2.3607126689
 O        -9.8006444327        4.6513337072       -1.3102363050
 C        -9.7627938617        4.3533855253       -3.6565910417
 C        -8.1581725215        4.4882386312       -3.7971139507
 O        -7.3924632745        3.8667709375       -3.0984939396
 C        -7.5869035035        5.3543649003       -4.8226509721
 C       -10.1144714899        2.8058960392       -3.6796301929
 C       -10.5530342191        4.9552291276       -4.8461003834
 C       -11.1171812908        8.9573093863        0.8610861326
 C        -9.7175425368       10.1911348967       -0.9675373328
 C        -4.0590265636        5.7840494829        1.4130433050
 C        -4.5812837799        4.0411717065       -0.2145563839
 C        -8.5344432237        2.6025945403        6.1776536137
 C        -7.1633138180        0.5543895765        5.3066719529
 C       -10.1531673582       -1.6795607240        0.8465563107
 C        -8.9113590305       -1.5247089629       -1.3353046123
 C       -16.1973329417        1.4286826970       -2.9229215873
 C       -15.8081412052        3.9437081874       -2.5837763090
 H       -17.7720952487        2.6002177655       -0.3411189461
 H       -16.6369287285        3.9406506392       -0.0121931007
 H       -16.7854449315        2.5594011700        1.1510266434
 H       -12.7550159132        0.5246646384       -3.0216287037
 H       -13.9077725043       -0.0470196839       -1.9948250611
 H       -12.5057775588        0.9477488175       -0.0491698930
 H       -11.3752772373        1.4736176775       -1.3819270413
 H       -10.7099917158        0.9182699504        1.5800892794
 H        -9.7551516763        2.2986504906        1.1021014940
 H        -7.6553471927        1.5091130321        2.2416299501
 H        -8.4429306678       -0.0752130905        2.5710076881
 H        -7.5365925842        4.9661598369        4.9338085828
 H        -8.2867411718        4.3868911616        3.4331060890
 H        -5.3349913686        5.0398360629        3.7344858165
 H        -6.4909914901        6.1031344271        3.0592280918
 H        -5.1665875964        8.0698843671       -0.1008228213
 H        -6.2249278729        7.8439629844        1.3659602792
 H        -7.5043871712        8.0106050981       -1.2862075198
 H        -6.9354162531        9.4528464636       -0.4796988970
 H       -12.4934058675        7.6147367126       -1.3275118669
 H       -11.6285144535        6.4197296580       -0.2428928956
 H       -11.7184631159        6.4445643278       -3.3256674175
 H       -12.3618421494        5.2490938933       -2.1326027558
 H        -7.9049495336        5.2410724002       -5.8102676899
 H        -6.5083611978        5.3126177714       -4.8644672896
 H        -7.8210671494        6.3961559569       -4.5512948648
 H        -9.5031114104        2.3988350203       -2.9022015964
 H        -9.8793560330        2.3905386097       -4.5927189982
 H       -11.1328579134        2.6020611379       -3.4358866698
 H       -10.2363023418        4.5070451604       -5.7901944473
 H       -10.2563382135        6.0295620505       -4.8482172255
 H       -11.6214158324        4.8608003371       -4.8147774489
 H       -10.9349162479        9.6454305191        1.7451852003
 H       -11.1641699474        7.9189885792        1.2849180562
 H       -12.0877244882        9.0901061690        0.3470351025
 H       -10.6918628517       10.6488544121       -1.2344404799
 H        -9.2591725318        9.8881466390       -1.8664759143
 H        -9.1529397354       10.8720848765       -0.3309773565
 H        -4.4403363700        6.3693882277        2.2350844816
 H        -3.5141384885        6.4706076488        0.7464287233
 H        -3.4130392600        5.0822406903        1.8668997035
 H        -3.6867555733        4.4760056809       -0.7269571054
 H        -5.3751243901        3.6821100996       -0.8968754301
 H        -4.1177901066        3.3013449397        0.4566530415
 H        -7.8567925232        2.5294476017        6.9688552435
 H        -9.3778066400        2.0725532125        6.4049976230
 H        -8.7864397604        3.5767680846        5.9375691781
 H        -6.3921791942        0.3499645299        4.4846120191
 H        -7.7436611336       -0.3352628913        5.4603576184
 H        -6.6422124482        0.7667426138        6.2300430657
 H        -9.2762641462       -1.6439633314        1.5183583978
 H       -10.3453713632       -2.6951982807        0.4765433927
 H       -10.9974402191       -1.4152430031        1.4233972746
 H        -7.9578248544       -0.9487942681       -1.3905797303
 H        -9.3521240608       -1.5833272588       -2.3294229218
 H        -8.8074810458       -2.5124492259       -0.9184991761
 H       -15.6052769732        1.0533572504       -3.7671342877
 H       -17.0494554359        1.8841098788       -3.3620935341
 H       -16.4287198481        0.5650269730       -2.3316989241
 H       -15.4517117173        4.0778631406       -3.6028567127
 H       -15.2767386288        4.6614470693       -1.9698025240
 H       -16.8688487005        3.9514319411       -2.5723305752
 Na       -7.7660474114        3.4515083129       -0.8290849479
