117

 C       -16.8860112532        2.9087484511        0.0744118338
 C       -15.6697309457        2.1247304420       -0.5475173226
 O       -15.0028601787        1.3498639736        0.0424780839
 C       -15.3601244065        2.3981979231       -2.0987711480
 C       -13.7967945252        2.2353135066       -2.2721511125
 O       -13.0949746939        3.2328219311       -2.4582419833
 C       -13.1628457992        0.8731074750       -2.1389739334
 C       -12.1105959038        0.7438265974       -1.0079031152
 C       -11.2730030139       -0.5578149023       -1.2042225789
 O       -11.8100328346       -1.4546889326       -1.8138095698
 C        -9.9313678219       -0.8486853557       -0.4150654723
 C        -9.4351112552        0.6055253837       -0.0041632367
 O        -8.5727945564        1.1104831147       -0.7361229053
 C        -9.8853170188        1.3530858003        1.3497449458
 C        -8.7551185893        1.0360479593        2.4054180344
 C        -9.0355827520        1.6592082458        3.8584778662
 O       -10.1400481391        1.9403763459        4.1694981401
 C        -7.8364356572        1.9852730953        4.9020484756
 C        -6.7477130360        2.9894533362        4.2795368032
 O        -5.6199322221        2.6463558559        4.0783517063
 C        -7.2969271495        4.3919182818        4.0286862162
 C        -6.3434763786        5.1441754247        3.1212611608
 C        -6.2866569719        4.5732659592        1.7640362863
 O        -7.0531446969        3.6638496107        1.4965752991
 C        -5.2717798058        5.1432447202        0.8083828531
 C        -6.2048416424        6.0817216695       -0.0563766389
 O        -7.0215132446        5.6358140250       -0.7560738664
 C        -6.0395450914        7.5918516051        0.2333756919
 C        -7.2549806241        8.3566197226       -0.3372758230
 C        -8.5632754405        8.3847001361        0.5166767005
 O        -8.5282421833        8.1382967524        1.6638067850
 C        -9.9617217733        8.8288306707       -0.2383924252
 C       -10.2757323051        7.8080389959       -1.3468448290
 O        -9.5666128093        7.7440012016       -2.3233262591
 C       -11.4569877895        6.7367521230       -1.1670136280
 C       -11.4528370056        5.9263334675       -2.4945193033
 C       -10.2609139457        4.9704966605       -2.4020622844
 O        -9.8399676604        4.7349324715       -1.2522656269
 C        -9.6663617857        4.3016433992       -3.6943576153
 C        -8.1542547283        4.4398085418       -3.8160435735
 O        -7.4726888481        3.7558231700       -3.0566963558
 C        -7.7089530948        5.3496429060       -4.9088164055
 C       -10.0165405755        2.7460879655       -3.6126514194
 C       -10.4936515481        4.8414310605       -4.9698584852
 C       -11.0862657002        8.9711176903        0.7902201605
 C        -9.6835661835       10.2065878562       -0.9739612350
 C        -4.0842050086        5.8733723785        1.4933803649
 C        -4.7184296434        3.9718617534       -0.2066445097
 C        -8.5710453642        2.6266265455        6.1517149257
 C        -7.1120885936        0.7566643156        5.4370511621
 C       -10.3460544742       -1.7314878280        0.7832832285
 C        -8.9664670876       -1.4380505303       -1.4204672756
 C       -16.2174865497        1.3717533301       -2.9844482628
 C       -15.7953941911        3.8762345165       -2.5383965758
 H       -17.8033389491        2.6999468106       -0.5094523309
 H       -16.7054008053        4.0043175311        0.0639053152
 H       -17.0312117855        2.5833536615        1.1130281738
 H       -12.7828000247        0.4836483242       -3.0508265356
 H       -13.9164780562        0.1531876079       -1.9299728958
 H       -12.6602803498        0.6343541880       -0.0571344981
 H       -11.4658046227        1.6058092649       -1.0266481199
 H       -10.8415983351        1.0750622996        1.7308348059
 H        -9.9683019465        2.4766237015        1.1410275610
 H        -7.6776219022        1.2722037611        2.0837090096
 H        -8.8095317193       -0.0301633785        2.5073396609
 H        -7.5086127845        4.9056873856        4.9630652990
 H        -8.2546399823        4.3068778740        3.4719067418
 H        -5.3642636451        5.1762094738        3.5844130539
 H        -6.5982302235        6.1862834415        3.0458443286
 H        -5.1451391979        8.0587900186       -0.1828720164
 H        -6.1810061720        7.8377596079        1.2716065145
 H        -7.5261656718        7.8298876959       -1.2460241477
 H        -6.9754542103        9.3806075677       -0.5650428240
 H       -12.3508298064        7.2777575911       -0.9816403231
 H       -11.1585383654        6.1702006306       -0.2928313333
 H       -11.3511533189        6.6099862886       -3.3195850904
 H       -12.3933494492        5.3245305922       -2.5364410890
 H        -7.7952664444        4.8687678532       -5.9177331592
 H        -6.6489841288        5.5512316512       -4.8773198828
 H        -8.1846607629        6.3120733575       -4.9712055505
 H        -9.4590224144        2.3280929994       -2.7848973539
 H        -9.7143145786        2.3066491135       -4.5071518671
 H       -11.0061594369        2.5523025528       -3.4833817536
 H       -10.1769183535        4.3070512967       -5.8163473084
 H       -10.3209410744        5.9305558132       -5.1271691019
 H       -11.5740271713        4.6766211598       -4.8925451814
 H       -10.7998456927        9.7832926486        1.4573597746
 H       -11.3262017866        8.1071077181        1.3790265200
 H       -12.0073217242        9.2396132305        0.1725863480
 H       -10.5440103559       10.7371423718       -1.2437817478
 H        -9.1100763496        9.8746324411       -1.8685305395
 H        -9.1100785225       10.7816379750       -0.3093771407
 H        -4.4081543014        6.7448357963        1.9264178380
 H        -3.2757894199        6.1623127763        0.8022719753
 H        -3.7027364487        5.3131981838        2.3147531319
 H        -3.7052229374        4.1740775804       -0.4841050633
 H        -5.4487684540        3.8538149546       -1.0291056726
 H        -4.5617158889        3.0930075380        0.4434821403
 H        -7.8956606239        2.8833783587        6.9259407628
 H        -9.1868438881        1.8074414828        6.4408780110
 H        -9.1826168650        3.4154482544        5.7970539658
 H        -6.5149109854        0.3275758052        4.6166237375
 H        -7.7933338708       -0.0125896962        5.8253454817
 H        -6.4863169395        1.0130895243        6.3011029651
 H        -9.4970654884       -1.7411024836        1.5076555651
 H       -10.5377849826       -2.7270077611        0.4068042987
 H       -11.2404165601       -1.4122702070        1.3356045944
 H        -8.1046335683       -0.7157672773       -1.4068405711
 H        -9.3743568834       -1.3507924660       -2.4124709620
 H        -8.7328226990       -2.4648936376       -1.1621180260
 H       -15.6322362987        1.0364616266       -3.8180265119
 H       -17.0990529364        1.8627449020       -3.4270563130
 H       -16.4512841165        0.5025678039       -2.4303051061
 H       -15.5781838592        4.0388520542       -3.6156041094
 H       -15.0966845688        4.5238872012       -1.9647540600
 H       -16.8665051837        3.9502640220       -2.3619229728
 Na       -7.8835142368        3.4428908491       -0.7837090253
