117

 C       -16.8592597476        2.8747191246        0.0535386249
 C       -15.7298250395        2.1706928127       -0.5636874648
 O       -14.9846619505        1.5171293415        0.1361104243
 C       -15.3904535964        2.3339634892       -2.1097694498
 C       -13.8752633265        2.3181316928       -2.2291313955
 O       -13.2867517467        3.3245834084       -2.5077621233
 C       -13.2127367670        0.9484569193       -2.1697797162
 C       -12.1771835526        0.7974079387       -1.0155325823
 C       -11.4436277255       -0.5428774994       -1.1892241959
 O       -11.7797651074       -1.4198080479       -1.9267308378
 C       -10.0125490937       -0.6856387916       -0.4487379841
 C        -9.3763279779        0.6231761645        0.1320359003
 O        -8.6025518406        1.2224253628       -0.5672965275
 C        -9.8404813990        1.2553144228        1.4251857276
 C        -8.7483810752        1.0805475754        2.4394961629
 C        -8.9977523079        1.7586645627        3.8110006625
 O       -10.1330680118        1.9144541994        4.2222624196
 C        -7.8197535515        2.0332956561        4.9043065407
 C        -6.7398696771        3.0139322159        4.3169845404
 O        -5.5671261819        2.7620312755        4.0012333116
 C        -7.2711548480        4.4425596597        4.1815161545
 C        -6.4269442705        5.3196626672        3.2285553349
 C        -6.2392877212        4.5746890522        1.8561626235
 O        -7.0385346835        3.7109593347        1.4590895927
 C        -5.2622668094        5.1645927793        0.8041833495
 C        -6.2283818595        6.0794661742        0.0126427437
 O        -7.0947935471        5.5565695715       -0.7015547596
 C        -6.1848714243        7.5978047890        0.1111452820
 C        -7.3719808097        8.3555384365       -0.5055487298
 C        -8.5610396706        8.3454780069        0.4467049805
 O        -8.4650896371        8.0151064856        1.6199283541
 C        -9.8259752571        8.8049113092       -0.2429736247
 C       -10.1325881954        7.6696102191       -1.3351386732
 O        -9.4415430285        7.5846914813       -2.3554796314
 C       -11.2933499294        6.7301304617       -1.2068313237
 C       -11.3689105335        5.8964033527       -2.5050368834
 C       -10.2295075326        4.8806899087       -2.4090145446
 O        -9.7170368127        4.6112028167       -1.3595121276
 C        -9.7967518461        4.1677412490       -3.7138593702
 C        -8.2509131468        4.3973816279       -3.8487377700
 O        -7.4547516527        3.8112495147       -3.1203228775
 C        -7.6709799034        5.2857547269       -4.9375339270
 C        -9.9890566853        2.6815885724       -3.4937613542
 C       -10.4129822784        4.6581804422       -5.0532879945
 C       -10.9734365784        9.0247077856        0.7604195084
 C        -9.5984862944       10.2183024256       -0.9156468121
 C        -4.0565173552        5.8506368112        1.4596876891
 C        -4.8461644324        3.9653753511       -0.1224864496
 C        -8.5614424391        2.7082081166        6.0984717237
 C        -7.0565512227        0.8102013100        5.4290626745
 C       -10.4631114726       -1.6931313610        0.6775567629
 C        -8.9994486476       -1.4213724485       -1.4483629786
 C       -16.0949016199        1.3463411533       -2.9621694031
 C       -15.7547871571        3.7797256401       -2.4894957822
 H       -17.7261398099        2.8053285497       -0.6939395433
 H       -16.6230468350        3.9228527537        0.1955336049
 H       -17.0970438816        2.4404020511        0.9788840175
 H       -12.7415789453        0.6805357432       -3.1409169792
 H       -13.8993410068        0.1258275206       -2.0725142061
 H       -12.6771118193        0.8133687389       -0.0576810048
 H       -11.4109883465        1.5767294481       -1.1329105245
 H       -10.8763935220        1.0349047042        1.7384267744
 H        -9.8515477570        2.3803569582        1.2508982919
 H        -7.8218035634        1.3628321489        2.0901926097
 H        -8.6882566808       -0.0052301597        2.6662227594
 H        -7.3115248546        4.7953169533        5.1879644646
 H        -8.3051245201        4.4722459271        3.7759707226
 H        -5.4664089968        5.4999401186        3.6818439498
 H        -6.8207519002        6.3304937172        3.0803594445
 H        -5.3411969209        7.9604884601       -0.4019516963
 H        -6.2646841819        8.0120161010        1.1255188952
 H        -7.5793279709        7.9615600884       -1.5320099916
 H        -7.1189339361        9.4434206209       -0.5208377167
 H       -12.1394599096        7.3970825657       -1.0822304976
 H       -11.1006520488        6.2062476296       -0.3067225793
 H       -11.1906369340        6.5439206481       -3.3351888207
 H       -12.3738134386        5.4097355125       -2.5564901934
 H        -7.4559299787        4.6814808280       -5.8704251576
 H        -6.6222468891        5.5047379546       -4.6735761818
 H        -8.0883286197        6.2209342070       -5.2865581693
 H        -9.4744085115        2.4095015334       -2.6211963201
 H        -9.5247908504        2.2010448890       -4.4015870024
 H       -11.0287761714        2.3203099775       -3.4638561003
 H        -9.8927605892        4.0871877083       -5.8358388518
 H       -10.2831063216        5.6876591221       -5.2034758334
 H       -11.4784457507        4.4038717296       -5.1249648864
 H       -10.6316465301        9.8194306332        1.3701720002
 H       -11.2715165432        8.2091690394        1.3970601443
 H       -11.8383617119        9.3451094315        0.2072508383
 H       -10.5602379133       10.5518015988       -1.2069249765
 H        -8.9121928571       10.1762072564       -1.7765235505
 H        -9.2931942954       10.8790592230       -0.1296517539
 H        -4.2688107256        6.8784010477        1.8312444531
 H        -3.2049670219        5.9351585780        0.8784057261
 H        -3.8122307021        5.2785413844        2.3610447746
 H        -3.7947339074        3.9337399441       -0.3118826420
 H        -5.4948234875        3.9894741496       -0.9697930514
 H        -4.9350795812        3.0764018127        0.4684204096
 H        -7.8328614698        3.3446522925        6.6309888337
 H        -8.9594478616        1.8731341504        6.7552909447
 H        -9.3669103371        3.3023398917        5.6112047679
 H        -6.7115914358        0.2045761857        4.6642662714
 H        -7.7773591336        0.2335021390        6.0677234396
 H        -6.2746165816        1.0616028405        6.1603844522
 H        -9.6150871401       -2.0113410916        1.2704253449
 H       -10.8311367487       -2.5563885780        0.1108056781
 H       -11.2719678351       -1.3704616160        1.4099788588
 H        -8.0871180547       -0.8949528977       -1.4314763260
 H        -9.3568442467       -1.3895603833       -2.4863985435
 H        -8.9732683590       -2.4468606059       -1.0470585571
 H       -15.6313778966        1.1843756085       -3.9122051036
 H       -17.1243997049        1.6620699985       -3.1747216647
 H       -16.0572420169        0.3975746650       -2.4091354936
 H       -15.6030607502        3.9388422692       -3.5694362275
 H       -15.0058532589        4.3670916019       -1.9473352161
 H       -16.8483328351        3.8827071320       -2.2367265414
 Na       -8.0529436708        3.3623473981       -0.7254404783
