117

 C       -17.1093078614        2.7314311459        0.0789108423
 C       -15.7832627717        2.2614410642       -0.4485698328
 O       -14.9044304601        1.7933703821        0.1987648455
 C       -15.6371157070        2.5155539251       -2.0876581997
 C       -13.9583511731        2.4308264266       -2.3700954270
 O       -13.3443160210        3.4342115603       -2.6113088648
 C       -13.2261094968        1.0820721295       -2.2522100754
 C       -12.1823825559        0.9963197386       -1.1248988573
 C       -11.3757664854       -0.3552742063       -1.2347076184
 O       -11.6450799928       -1.1037853142       -2.1229301423
 C       -10.1675244824       -0.7157242812       -0.2749167255
 C        -9.4640936893        0.5568277363        0.2685032675
 O        -8.7315249768        1.2245180261       -0.4523017591
 C        -9.7188777135        0.9653310320        1.7565976260
 C        -8.5195275255        1.1860960597        2.6757764005
 C        -8.9712028268        1.8746893033        3.9170928166
 O       -10.1360382234        2.0173608292        4.1891037595
 C        -7.7730525824        2.2380745347        5.0344963619
 C        -6.8427885284        3.2838642788        4.4108119661
 O        -5.8619107416        2.9011868376        3.7602558979
 C        -7.2966404032        4.7214233038        4.3474667107
 C        -6.4723749508        5.4918718248        3.2546957735
 C        -6.4078421551        4.6744500641        1.9788417570
 O        -7.3338871660        3.9149158695        1.6372260153
 C        -5.3559074859        5.0664865324        0.7922504284
 C        -6.2553391313        6.1214868458       -0.0513670267
 O        -7.2022124395        5.7366180969       -0.6710506642
 C        -5.8103773530        7.6505935514       -0.0410823837
 C        -6.9609242743        8.6311614292       -0.4869511828
 C        -8.2838274659        8.2865235766        0.2320680361
 O        -8.2645197990        7.6131865252        1.2243259209
 C        -9.6391580454        8.6587746499       -0.4236644318
 C        -9.9700971219        7.6357238471       -1.6127208163
 O        -9.1631341617        7.5257031342       -2.5375917331
 C       -11.2891907179        6.8185859177       -1.5208542858
 C       -11.3294754928        5.8023284923       -2.6889548912
 C       -10.3287544857        4.6330481063       -2.4515988193
 O        -9.9349602282        4.3392017821       -1.3201658870
 C        -9.8052697081        3.8722641784       -3.7197967608
 C        -8.2571203140        4.2691116506       -3.7431342298
 O        -7.4989402391        3.7894482613       -2.9218518134
 C        -7.6643924988        4.9935681529       -4.9861670814
 C        -9.7959291492        2.3508888209       -3.5417913831
 C       -10.4218617972        4.2600850479       -5.0483981485
 C       -10.6485141465        8.7773727121        0.6895402174
 C        -9.6177195164       10.1355312718       -1.0937766516
 C        -4.1043152929        5.7535032394        1.4142303611
 C        -5.0065213839        3.8236496995        0.0065373488
 C        -8.4174410295        2.5845400011        6.3676225761
 C        -6.9909382229        0.9785132249        5.3176234544
 C       -10.6639770641       -1.7878964690        0.7833691068
 C        -9.0626107029       -1.4508561497       -1.3107431238
 C       -16.3920111366        1.3127514217       -2.6641580085
 C       -16.1564409633        3.8687393074       -2.5956648765
 H       -17.8418116120        2.7054659125       -0.7833703732
 H       -17.0247943733        3.7932595706        0.3356071817
 H       -17.3465148421        2.2141550709        0.9588349816
 H       -12.7623775224        0.8756213702       -3.2054129728
 H       -13.9274119953        0.2895019067       -2.1054222936
 H       -12.6625091404        1.2180793839       -0.1570346116
 H       -11.4270757523        1.7386311468       -1.3881517731
 H       -10.4670972915        0.4132203773        2.2303942906
 H       -10.2169983977        1.9426686056        1.8365236227
 H        -7.6546679401        1.7687055207        2.2663617633
 H        -8.0987282914        0.2107580156        3.0004850561
 H        -7.2210686798        5.2530801509        5.2959633234
 H        -8.3790457931        4.6929777194        4.0424034240
 H        -5.4767616227        5.6624876513        3.6648444868
 H        -6.8433880443        6.4881958695        2.9902408463
 H        -4.9554015635        7.9098950663       -0.6914781648
 H        -5.6398906781        7.9179808391        1.0078860995
 H        -7.0314922040        8.4808161631       -1.5382146349
 H        -6.6936733909        9.6336881844       -0.2253804081
 H       -12.0652005355        7.5884718228       -1.6451064559
 H       -11.3952826975        6.4236273315       -0.4834883315
 H       -10.8955920445        6.3430168579       -3.5074519716
 H       -12.3943893291        5.5109562024       -2.8984058859
 H        -7.6457621134        4.2594358382       -5.8308514666
 H        -6.6291049072        5.1879760851       -4.8674083127
 H        -8.0620405112        5.8564762424       -5.4211407089
 H        -9.2156891904        1.9943213613       -2.7378597383
 H        -9.5462032700        1.9181007162       -4.5069999898
 H       -10.8053252689        2.0730684694       -3.4234198015
 H       -10.0014889961        3.6264116456       -5.7976448035
 H       -10.2285467627        5.3177361056       -5.2942634138
 H       -11.5219826875        4.0876909281       -4.9596838254
 H       -10.4193348082        9.6253309019        1.3588499543
 H       -10.9120831060        7.8802847097        1.2944123835
 H       -11.6294886796        9.1344745966        0.1824938123
 H       -10.6182232918       10.4174554289       -1.3277001619
 H        -8.8806889985       10.0800783191       -1.9629016371
 H        -9.1986303646       10.8495054331       -0.3895654418
 H        -4.2905023498        6.4542216533        2.2016416164
 H        -3.6108423687        6.3692267105        0.6665232973
 H        -3.3259659469        5.0444016662        1.7339044232
 H        -4.0163208261        3.9131566572       -0.4486538415
 H        -5.7386613196        3.6188704966       -0.8063028370
 H        -4.8594883752        2.9491546319        0.7018273359
 H        -7.7123993532        2.5667895792        7.1235091443
 H        -9.1582809378        1.8437713033        6.5221569155
 H        -8.8716585903        3.5071163159        6.2359402114
 H        -6.4507671354        0.6823380960        4.4534354780
 H        -7.5626999680        0.1357533977        5.7585667861
 H        -6.2560809202        1.2516482196        6.0977304009
 H        -9.8790977448       -2.0888507299        1.4696614414
 H       -10.8554147308       -2.6863494251        0.2424780003
 H       -11.5592129351       -1.4984037809        1.3560836117
 H        -8.0773800996       -1.5255372249       -0.8517803860
 H        -8.9595323137       -0.7828706394       -2.1445607767
 H        -9.5703205821       -2.3723268097       -1.6064053593
 H       -16.4774040711        1.3757731415       -3.7355988599
 H       -17.4404108330        1.3075890423       -2.2659621804
 H       -15.9326020950        0.3789513113       -2.3958222285
 H       -15.6397400335        4.0955941658       -3.4948344925
 H       -15.8964816765        4.5522922733       -1.8192956131
 H       -17.2108183168        3.7620402944       -2.7293376171
 Na       -7.7649641529        3.4384089932       -0.5487401274
