117

 C       -17.1377452440        2.7282043435        0.0858049625
 C       -15.8020131763        2.3409141871       -0.5140145252
 O       -14.8658068636        1.8767509791        0.1750426694
 C       -15.6055210283        2.5003555348       -2.0313748482
 C       -14.0942614813        2.4190414719       -2.2844467016
 O       -13.5899493571        3.4551289232       -2.6696835750
 C       -13.2911846576        1.0962414075       -2.1327026440
 C       -12.1156656253        1.0400025254       -1.0790002137
 C       -11.2769713680       -0.2951281688       -1.3376445706
 O       -11.6239489803       -1.1161612693       -2.1620058178
 C       -10.1211433036       -0.6938470695       -0.2738510001
 C        -9.4737097886        0.5286869430        0.3169368002
 O        -8.8019043784        1.2409927380       -0.4036911660
 C        -9.8134854736        0.9900192502        1.7388128888
 C        -8.5776441436        1.2309664755        2.6416778140
 C        -8.8830698374        1.8161337784        4.0423130735
 O       -10.0207162175        2.2069669401        4.3120588412
 C        -7.7579074336        2.1456330793        5.0753828915
 C        -6.9195240944        3.3012757269        4.3517119190
 O        -5.8936654428        2.9913165414        3.7336746999
 C        -7.3532421144        4.7177367563        4.3179877937
 C        -6.4514670231        5.4680196586        3.2753362699
 C        -6.4943303704        4.8283250315        1.9157662754
 O        -7.4024785356        4.0213120674        1.6122945586
 C        -5.4154333756        5.1750371581        0.8534959571
 C        -6.2003937627        6.1805866930       -0.0271658649
 O        -7.1679857326        5.7773867488       -0.7465042972
 C        -5.8023704224        7.6577545180       -0.0693054456
 C        -6.8888077188        8.6298007274       -0.5295856640
 C        -8.2227396530        8.2014453611        0.1254772421
 O        -8.1676034120        7.5281724918        1.1791059458
 C        -9.5769753716        8.5928932808       -0.4964611809
 C        -9.8810432939        7.6216089084       -1.6599843447
 O        -9.1664709998        7.5086925358       -2.6737612861
 C       -11.1396589297        6.8279014947       -1.6308500557
 C       -11.1590321270        5.8335576242       -2.7756609244
 C       -10.3289130857        4.5906421746       -2.4113504475
 O       -10.0772445819        4.2901154330       -1.2856140109
 C        -9.7568995763        3.8339344729       -3.7099834027
 C        -8.2202793500        4.1108809962       -3.7568421852
 O        -7.4833451272        3.8255671262       -2.8190542336
 C        -7.7247119652        4.8701570279       -4.9489476612
 C        -9.7445530519        2.2559374416       -3.4741360979
 C       -10.4526142809        4.3003060440       -4.9902958041
 C       -10.6454516024        8.6627810219        0.6462681914
 C        -9.5202831287        9.9927501219       -1.1787059172
 C        -4.0825586815        5.6617453047        1.4422090314
 C        -5.0361341079        3.9192448341        0.0609245746
 C        -8.5741314923        2.6129684163        6.4190788310
 C        -6.8284821606        0.9142939427        5.3325612639
 C       -10.6863782240       -1.7350148081        0.6766837528
 C        -9.1355800229       -1.4996031774       -1.1559390131
 C       -16.4437266825        1.2692171501       -2.6629745243
 C       -16.0801537561        3.8761901536       -2.5466631319
 H       -17.9025436682        2.5601505673       -0.7022737328
 H       -17.2020495449        3.7881731897        0.3569885467
 H       -17.2405112098        2.1364018903        0.9970974161
 H       -12.8859281878        0.9291958634       -3.1269358466
 H       -13.9261762119        0.2826737691       -1.8753904400
 H       -12.5713096181        0.9555721179       -0.1003232365
 H       -11.4653098996        1.9248455049       -1.1215664128
 H       -10.5270884230        0.2954819970        2.2292994431
 H       -10.4460935590        1.8799695178        1.8182744498
 H        -7.8733401628        1.8646888912        2.2238499920
 H        -8.0619019113        0.2252723977        2.7524437695
 H        -7.1936981763        5.2639985055        5.2424789932
 H        -8.4328763956        4.7497486074        4.0654625564
 H        -5.4648759026        5.4714021799        3.6989189995
 H        -6.7066589502        6.5192898480        3.1842769606
 H        -5.0210026272        7.8309804669       -0.7831659465
 H        -5.4935133427        8.0150293587        0.9328479441
 H        -6.8855160798        8.6050877643       -1.6201169364
 H        -6.5896158549        9.5848935907       -0.1129362402
 H       -11.9471161658        7.5604268613       -1.7148784554
 H       -11.2644608167        6.3542316795       -0.6859342568
 H       -10.7632875093        6.2977427345       -3.6693244723
 H       -12.2247428647        5.5485536293       -2.8887440956
 H        -7.8892106053        4.3593790669       -5.8934264027
 H        -6.6439971364        4.9747588994       -4.8980433304
 H        -8.1010169596        5.8655819147       -5.1401723076
 H        -9.2425456483        2.0430035473       -2.6078781781
 H        -9.2538499177        1.8251017408       -4.2974525707
 H       -10.7142672713        1.8392056381       -3.4422862537
 H       -10.0673856770        3.6766710518       -5.8314797414
 H       -10.2404707842        5.3043564981       -5.2110355315
 H       -11.5311683843        4.1796658519       -4.8511504899
 H       -10.4830928119        9.4572570361        1.4042824275
 H       -10.6207861901        7.6401109711        1.1376213770
 H       -11.6586429762        8.8166866955        0.3201284696
 H       -10.5562486759       10.2349062180       -1.3407403723
 H        -8.9171139046        9.9828138514       -2.0371008264
 H        -9.0861963665       10.7156670718       -0.4977751594
 H        -4.0322824158        6.5453784884        2.0958556205
 H        -3.4289162135        5.8311953164        0.6737163902
 H        -3.6379736863        4.8260362141        1.9330966607
 H        -4.0107173100        4.0363314299       -0.4169944111
 H        -5.7078331454        3.7192726828       -0.7711344498
 H        -4.9189905495        3.0557534266        0.7568892263
 H        -7.9145562855        2.5459907415        7.2396072432
 H        -9.4042544462        1.9770059063        6.5714410049
 H        -8.9290067336        3.5936084851        6.3016404965
 H        -6.1016567127        0.8350028422        4.5514521777
 H        -7.3891560123       -0.0507402868        5.4470438040
 H        -6.2808165057        1.0516659671        6.2894814184
 H       -10.0778070540       -1.9237858160        1.5290477798
 H       -10.7233338720       -2.7202139117        0.2100820616
 H       -11.7039218828       -1.4354560377        1.0126989410
 H        -8.5815491976       -2.1177991544       -0.4944468031
 H        -8.4297901984       -0.8024981527       -1.6614090690
 H        -9.8217007306       -2.0624123500       -1.8431634277
 H       -16.3603507899        1.3258028395       -3.7265504498
 H       -17.4753168993        1.4505677834       -2.4161368841
 H       -16.2027784506        0.2511379764       -2.3175128524
 H       -15.7183939140        3.9769300253       -3.5645409524
 H       -15.6682775529        4.6029936982       -1.8515945485
 H       -17.1924428557        3.8203565116       -2.4415592159
 Na       -7.8284490473        3.4921310135       -0.5738051547
