117

 C       -17.2039103417        2.7213427063        0.1939693690
 C       -15.8374811218        2.3254292003       -0.4605385761
 O       -14.8767021912        1.9953325767        0.2377188870
 C       -15.6231008195        2.4854358603       -1.9943773854
 C       -14.1023528737        2.3943384181       -2.2767283064
 O       -13.5441199194        3.4091037061       -2.7309386202
 C       -13.3684408089        1.0625702319       -2.0650231057
 C       -12.1261329168        1.0334334097       -1.0912405048
 C       -11.3751495318       -0.2859539729       -1.2886745489
 O       -11.6285553588       -0.9967195332       -2.2454548248
 C       -10.1442128416       -0.7249018436       -0.3487533893
 C        -9.5309787320        0.5851174470        0.3446356092
 O        -8.7891459870        1.3179367003       -0.3250600957
 C        -9.8823263575        1.0120506469        1.8101584997
 C        -8.5794144558        1.2151975621        2.6304843943
 C        -8.9054214115        1.8707327269        4.0824933066
 O        -9.9922767934        2.3462034901        4.2987041136
 C        -7.7254811618        2.0802959939        5.0761840035
 C        -6.9487656968        3.2371847711        4.3647466949
 O        -5.9532900857        2.9083999255        3.8037601232
 C        -7.4489046095        4.7418522420        4.3142739135
 C        -6.4921164116        5.5044924219        3.3563158422
 C        -6.5844231865        4.8959229717        1.9107458672
 O        -7.4917943283        4.1900800403        1.6225272837
 C        -5.4049391727        5.2082435524        0.8710003937
 C        -6.0710158932        6.2370400661       -0.1338699842
 O        -7.0219886984        5.8631620309       -0.7933254445
 C        -5.6422817697        7.6823827489       -0.1137808018
 C        -6.8475970603        8.5462025959       -0.6235404938
 C        -8.1349965219        8.1492764061        0.1218298808
 O        -8.1465923627        7.4833239617        1.1385115038
 C        -9.5011838289        8.5904357138       -0.5600280741
 C        -9.7846421736        7.6139713121       -1.7176810276
 O        -9.0383319539        7.6324047747       -2.6448052284
 C       -11.1843777772        6.7517526924       -1.6582573758
 C       -11.1871974081        5.7330019654       -2.7807488193
 C       -10.3047049994        4.5567433156       -2.4880735839
 O       -10.1619413608        4.1829986432       -1.3309584454
 C        -9.6621436212        3.7951360432       -3.6662434575
 C        -8.1184571677        4.1431434342       -3.7312964935
 O        -7.3814153447        3.8400439824       -2.7968951042
 C        -7.6235669518        4.7747790067       -4.9342513572
 C        -9.8552625601        2.2122326705       -3.4363219120
 C       -10.5270724925        4.0767105930       -4.9233862197
 C       -10.6020410579        8.4509541599        0.5169047390
 C        -9.3626226564        9.9980482759       -1.2515434891
 C        -4.1308070302        5.7327796885        1.5447385346
 C        -5.0807000127        3.9113133682        0.0053152193
 C        -8.4284709724        2.6362466221        6.3306865313
 C        -6.7822621827        0.8977499926        5.3688903490
 C       -10.8656039374       -1.6284718249        0.6863835996
 C        -8.9666433595       -1.5152555533       -1.1018807733
 C       -16.3955963686        1.3069573581       -2.7356378352
 C       -16.1815231264        3.8198300317       -2.4861085729
 H       -18.0145320575        2.4884121675       -0.4192672906
 H       -17.2507325421        3.8023112165        0.3735649412
 H       -17.2003072722        2.2202492374        1.2149039928
 H       -12.9959348284        0.8312472739       -3.0747285244
 H       -14.0542551793        0.2701017223       -1.6741172936
 H       -12.4820941160        1.0632987240       -0.0652813639
 H       -11.4352507120        1.8732185991       -1.2414811817
 H       -10.6493870197        0.3145239490        2.2728986794
 H       -10.4546219400        1.9431401372        1.9272811564
 H        -7.9836313668        1.9587585992        2.0850914410
 H        -7.9732369161        0.3358058525        2.6458225477
 H        -7.3751621206        5.3383094513        5.2389155533
 H        -8.4452078101        4.8366571562        3.9514847056
 H        -5.5300360869        5.5929247990        3.8586732092
 H        -6.8581785912        6.5319103671        3.3016466036
 H        -4.7945647998        7.8732012113       -0.7807607877
 H        -5.3810803067        8.0614353086        0.8684914688
 H        -7.0026977460        8.2762173816       -1.7000621930
 H        -6.5723824033        9.6084002131       -0.4263430589
 H       -12.0397628604        7.4141946258       -1.6329626483
 H       -11.2177540579        6.2164141046       -0.7336860731
 H       -10.9280824017        6.1940076052       -3.7683558783
 H       -12.1682895761        5.2956079120       -2.8097498969
 H        -8.0881554310        4.4855420072       -5.8437690211
 H        -6.5229605453        4.7611697559       -5.0481965920
 H        -7.8822073320        5.8818853515       -4.8963942686
 H        -9.5808801579        1.8936915175       -2.3810323309
 H        -9.2100052907        1.7031146935       -4.0813715801
 H       -10.8648058942        1.9223076182       -3.6432071004
 H       -10.1972027246        3.4044147463       -5.7253807146
 H       -10.3449942523        5.0865940967       -5.2711480922
 H       -11.5456193194        3.9694920759       -4.6768437552
 H       -10.5437319167        9.1621426777        1.3437748497
 H       -10.3922861609        7.4686655909        0.8918862215
 H       -11.6140397341        8.4746225722        0.2441974730
 H       -10.3747871677       10.2376399007       -1.5567843432
 H        -8.6938352883        9.9439995974       -2.0381490592
 H        -8.9700222487       10.7359056828       -0.5870964322
 H        -4.2068104005        6.7198580085        1.9478489987
 H        -3.2374297725        5.6578544321        0.8931061365
 H        -3.8710275375        5.0891939247        2.3313287629
 H        -4.0548715092        4.0135326156       -0.4311231784
 H        -5.7221655329        3.7822904453       -0.8629732996
 H        -5.0707207958        3.0321461558        0.6339945923
 H        -7.6299993915        2.6768744567        7.1200523312
 H        -9.2353080844        1.9833025073        6.6567319830
 H        -8.8623238777        3.6434828936        6.1374472036
 H        -5.9262340572        0.9158386653        4.6154335112
 H        -7.3275859961       -0.0152685281        5.2539756008
 H        -6.3527790368        0.8980773781        6.3571890680
 H       -10.2278738349       -1.8277097294        1.5668419483
 H       -11.1595356673       -2.6684991605        0.4184983697
 H       -11.7091494056       -1.0545485040        1.0148976133
 H        -8.7844099997       -2.3400686521       -0.3884061483
 H        -8.0730600103       -0.8747959136       -1.0351499621
 H        -9.2517096339       -1.8265920293       -2.0982785298
 H       -16.0436807611        1.3166169460       -3.7793168737
 H       -17.4255876857        1.5391764609       -2.7007672073
 H       -16.3146843271        0.3016161106       -2.3099995773
 H       -16.0799206926        3.7270588934       -3.5979340665
 H       -15.5284051078        4.6091008893       -2.0324519686
 H       -17.2141737155        3.9052238836       -2.0934250205
 Na       -8.0864015696        3.5085067147       -0.6047122887
