117

 C       -17.3255594203        2.5742113885        0.3977698299
 C       -15.9572687173        2.4729063598       -0.2293200548
 O       -14.9484780697        2.3472572178        0.5094222978
 C       -15.7910775755        2.5594223067       -1.7884085594
 C       -14.3211769049        2.1410720742       -2.1265673964
 O       -13.5649752684        2.9713166184       -2.5836789711
 C       -13.7130114561        0.7587616734       -1.7687951642
 C       -12.3974944364        1.0284994991       -1.0060753654
 C       -11.2641090290       -0.0398196498       -1.2468033225
 O       -10.8405832590       -0.4081644707       -2.3366536076
 C       -10.4025027960       -0.4915132618        0.0659127084
 C        -9.7954314819        0.8650173765        0.4946241142
 O        -9.0283994346        1.4450914211       -0.2325000250
 C       -10.1176474637        1.5441276155        1.8156664792
 C        -8.9675644897        1.2464483756        2.8128267679
 C        -9.0188573705        2.0971771700        4.1364117938
 O        -9.9877182061        2.8023268544        4.4013016697
 C        -7.7837606995        2.1389945860        5.0486925901
 C        -7.0075687812        3.3461822308        4.3317171516
 O        -5.9602324679        3.0725993074        3.8232629216
 C        -7.4567396259        4.8339798994        4.4751404065
 C        -6.6430795221        5.6885446286        3.4781092899
 C        -6.7734477006        5.2423880115        2.0511432126
 O        -7.8261923120        4.7052835511        1.6199130611
 C        -5.4569193017        5.3593078557        1.1243410630
 C        -5.8245077513        5.9412932132       -0.2461570529
 O        -6.5327983899        5.2324754618       -0.9627110645
 C        -5.5327927973        7.3787236469       -0.5952181215
 C        -6.7213629890        8.1149925162       -1.1921738753
 C        -7.8337752885        8.1208629277       -0.1601201499
 O        -7.7028135357        7.7034639524        1.0015729551
 C        -9.2871531636        8.4425102485       -0.8090633959
 C        -9.5090688967        7.3875923413       -2.0042044753
 O        -8.7808459330        7.4376691522       -3.0157194518
 C       -10.8230291314        6.6185992595       -2.0311382924
 C       -10.8335391539        5.6296602059       -3.1998737165
 C       -10.2841198595        4.2446423542       -2.7790699706
 O       -10.2899980383        3.8381343778       -1.6315465801
 C        -9.6996953163        3.4548049497       -3.9124361607
 C        -8.1335928148        3.8130168277       -3.8287261597
 O        -7.4361385994        3.4473268446       -2.9119329896
 C        -7.5553524953        4.5283259162       -5.0067167705
 C        -9.7955290257        1.9389606580       -3.5227716290
 C       -10.2646124420        3.8141135443       -5.3038320324
 C       -10.3680067860        8.5071027394        0.2778263648
 C        -9.3171875559        9.8472096333       -1.4545823215
 C        -4.1937268977        5.9866794358        1.8468469345
 C        -5.0610466405        3.9043879456        0.8837378362
 C        -8.1312800973        2.4424749189        6.4380241799
 C        -6.8325956758        0.9300449356        4.9349967857
 C       -11.3306783804       -1.2808090030        1.0414343775
 C        -9.1867237754       -1.3785555956       -0.4777381410
 C       -16.6816508269        1.5500629836       -2.6290955885
 C       -16.1486110533        4.0024020978       -2.2299878151
 H       -17.8581300491        1.6183760528        0.3266852978
 H       -17.8750135544        3.3529316095       -0.0675963476
 H       -17.2526411920        2.7286076499        1.4727005824
 H       -13.4111979841        0.3413357936       -2.7983756220
 H       -14.3781805442        0.0811036393       -1.2137566496
 H       -12.6104295519        1.2425722228        0.0509243057
 H       -11.9723357202        1.9853802469       -1.3379311240
 H       -11.0265897006        1.2244800965        2.2854415807
 H       -10.0424293361        2.6127084218        1.6182131176
 H        -8.0233779718        1.1012641697        2.2982100263
 H        -9.1679186113        0.1911859082        3.3007216410
 H        -7.2894968564        5.1638461007        5.4796031990
 H        -8.5445819067        4.9643528658        4.2780289148
 H        -5.5953043791        5.5535948977        3.7832053844
 H        -6.9073320717        6.7720323021        3.4917936800
 H        -4.7269852928        7.3939296280       -1.3126678026
 H        -4.9926968011        7.9612665537        0.1747418722
 H        -6.9271656368        7.5925568745       -2.1400522987
 H        -6.5161947045        9.1933956079       -1.3688180999
 H       -11.6946738588        7.3226043486       -2.1367765074
 H       -11.0973862572        6.0832804376       -1.0872732205
 H       -10.2948202315        5.9524209620       -4.0488573558
 H       -11.8786254549        5.5345174769       -3.5703776020
 H        -7.5021159021        4.0017098271       -5.9705778448
 H        -6.5037563559        4.7274682093       -4.6761280391
 H        -7.9835488369        5.4943686122       -5.2844840555
 H        -9.6892528393        1.7349140521       -2.3984457879
 H        -8.9476707518        1.3835939929       -3.9962848855
 H       -10.7929895596        1.4985440239       -3.8370729677
 H        -9.9969128973        2.9875718653       -5.9660089403
 H       -10.0095740743        4.7577632447       -5.6658706360
 H       -11.3525709618        3.6920057735       -5.2045020280
 H       -10.2458764145        9.2669755617        0.9873046539
 H       -10.3599602587        7.6352308221        0.9042825253
 H       -11.3152358301        8.5212692515       -0.0796458796
 H       -10.3217644708       10.0504445116       -1.8272789997
 H        -8.6980418846       10.0173709065       -2.2896010849
 H        -9.1528356741       10.5836056058       -0.6522666046
 H        -4.3162921301        6.9590156576        2.4339886498
 H        -3.4289568041        6.1265447425        1.1563498876
 H        -3.8721406341        5.2712715649        2.6265197527
 H        -4.2462400462        3.9347757864        0.1754980119
 H        -5.8177600768        3.3815758844        0.3623570096
 H        -4.9367839069        3.3227901455        1.7890494391
 H        -7.2770135391        2.3560796293        7.1855108352
 H        -8.9589702333        1.7734860229        6.7938698725
 H        -8.5169896328        3.5204905150        6.4410910956
 H        -6.5824883834        0.7133175531        3.9449798583
 H        -7.2875745998       -0.0177729411        5.3149181765
 H        -5.8967978109        1.1533800481        5.4683421540
 H       -10.8529361293       -1.5449891735        1.9600964667
 H       -11.7461246326       -2.1581417877        0.5463734226
 H       -12.2848903687       -0.7861118838        1.3602794365
 H        -9.4789949344       -1.7792720316       -1.4078770387
 H        -8.9590853088       -2.1138923435        0.3018650061
 H        -8.2672166974       -0.7457224048       -0.5322009858
 H       -16.5190867180        1.5824802345       -3.6899409895
 H       -17.7322761819        1.8560239906       -2.4913095486
 H       -16.5759381638        0.4947016044       -2.2975288778
 H       -15.8396602879        4.0443129162       -3.2971253233
 H       -15.5453429437        4.7293156695       -1.6374990433
 H       -17.2545254482        4.1999890156       -2.0342304929
 Na       -8.2423474008        3.5828825461       -0.5497943654
