117

 C       -17.3816621470        2.5685686879        0.3858850966
 C       -15.9689705828        2.4830807379       -0.2156882594
 O       -14.9980394174        2.3687562373        0.4840394353
 C       -15.8304580500        2.6010031245       -1.7528644945
 C       -14.3374665544        2.2435168558       -2.1217405997
 O       -13.6270576947        3.0566669952       -2.7099893443
 C       -13.8241867111        0.7378885359       -1.7261090448
 C       -12.4351527885        0.8475415565       -1.0245404588
 C       -11.2657291438       -0.0872707788       -1.1801043469
 O       -10.9297450854       -0.5360272103       -2.2569129747
 C       -10.3837415169       -0.3901305995        0.1150528352
 C        -9.7960501483        0.9279467752        0.5806854958
 O        -8.9996169580        1.3593497284       -0.2387691207
 C       -10.0540022879        1.7087790115        1.9027960970
 C        -9.0598580598        1.1405810010        2.9428706280
 C        -9.0658071153        2.0611438973        4.1852587689
 O        -9.9612185796        2.7740071147        4.4183040007
 C        -7.7406767754        2.2127277167        5.0272169492
 C        -6.9640505224        3.4352277044        4.4399428010
 O        -5.9789455651        3.2728355436        3.7564122393
 C        -7.5335805317        4.8514514120        4.5151350051
 C        -6.6466468541        5.8020553287        3.5810122013
 C        -6.7200214399        5.2389797654        2.1352039105
 O        -7.7145133986        4.7748917795        1.6901490398
 C        -5.4423531164        5.2293405378        1.2070666088
 C        -5.9097374132        5.9016394464       -0.1837659540
 O        -6.6013810887        5.3068265765       -0.9515580305
 C        -5.3896865757        7.2884158765       -0.5844406796
 C        -6.5772476582        8.0563499788       -1.2454109368
 C        -7.8427640460        8.0729813407       -0.2895415244
 O        -7.7259512743        7.7796690761        0.8768265027
 C        -9.2593705121        8.4194524191       -0.8887613228
 C        -9.5382181837        7.4699150073       -2.1079001154
 O        -8.7832999829        7.3732966172       -3.0127712745
 C       -10.8332395704        6.6206409168       -1.9845172043
 C       -10.9811306088        5.6120070789       -3.1612940087
 C       -10.2830675765        4.2353343991       -2.8803474799
 O       -10.1367028336        3.9587031386       -1.7090041344
 C        -9.6426249644        3.4524693832       -4.0430397266
 C        -8.0238760817        3.7316670719       -3.9173863561
 O        -7.3706467329        3.3163112012       -2.9351300238
 C        -7.5615431613        4.4888442665       -5.0673129593
 C        -9.8098026379        1.9487348190       -3.7044359225
 C       -10.2621031097        3.8012788107       -5.3818606124
 C       -10.3539465636        8.3128983184        0.1773892806
 C        -9.1340761837        9.8703025140       -1.5183278456
 C        -4.3061280213        6.0914200619        1.8011394658
 C        -4.9630283679        3.7582878037        0.9033036775
 C        -8.2171452558        2.4337915157        6.5252256043
 C        -6.9485813336        0.9003624562        4.8061559863
 C       -11.3093510802       -1.0782499461        1.0937232137
 C        -9.1797748658       -1.3305192080       -0.3659635953
 C       -16.6409112064        1.5350756143       -2.5429673708
 C       -16.1629786082        4.0222726996       -2.1043907135
 H       -17.7432177349        1.6101585410        0.5163459139
 H       -18.0501843604        3.1782207141       -0.1850885135
 H       -17.3265214498        2.9163555719        1.4539957774
 H       -13.8446882899        0.1881561050       -2.6923100142
 H       -14.4957792672        0.2731474529       -0.9895353613
 H       -12.7212020827        0.9463015137        0.0254921146
 H       -12.0012633153        1.8749855488       -1.1734789055
 H       -11.0433248986        1.5579422766        2.3327630682
 H        -9.6827809749        2.7043847163        1.8101594981
 H        -8.0694082565        1.2864290446        2.4978493574
 H        -9.0301549787        0.0050292676        3.1711363134
 H        -7.4962849231        5.2942397323        5.5364620575
 H        -8.6041637926        4.8598915847        4.2519022122
 H        -5.6508983105        5.8293881687        4.0442661647
 H        -7.0892175641        6.8139829730        3.5675136457
 H        -4.5857534857        7.1705039363       -1.3134262579
 H        -4.8025660722        7.9289549182        0.1044877739
 H        -6.6906593343        7.5929989665       -2.2149930265
 H        -6.3184881249        9.0824998223       -1.3708299879
 H       -11.8654234434        7.0840303999       -1.8393355848
 H       -10.7734269273        6.0000697627       -1.0649370783
 H       -10.6907843119        5.9654176418       -4.1591628999
 H       -12.0493475888        5.4656860679       -3.2683426734
 H        -7.6264682475        3.8448597615       -5.9104180594
 H        -6.5152322533        4.8191290841       -5.0298860007
 H        -8.1721862591        5.3812798198       -5.3638172405
 H        -9.5050481387        1.6391254024       -2.6186594146
 H        -9.1916930998        1.3251546044       -4.4012448466
 H       -10.8801697253        1.6680751383       -3.8241946101
 H       -10.1464211580        2.8891524944       -6.0138775622
 H        -9.9513642428        4.7260585652       -5.8543979426
 H       -11.3138299647        3.8339889917       -5.2287766114
 H       -10.3488462362        8.9847493560        1.0344890941
 H       -10.2686051094        7.3711364242        0.6933578502
 H       -11.3552054121        8.2582762494       -0.1840804253
 H       -10.0675465228       10.1245007211       -2.1103351966
 H        -8.3551960500       10.0178217356       -2.2204595763
 H        -9.1517248541       10.5924518692       -0.6698331810
 H        -4.6934019461        7.0304168609        2.2623427565
 H        -3.5758925782        6.3944848325        0.9929521001
 H        -3.7940407466        5.5959053615        2.6339338399
 H        -4.0188499308        3.7612743409        0.3469090732
 H        -5.6670860384        3.2468793181        0.2981154245
 H        -4.9652874576        3.1817485609        1.7963656319
 H        -7.4731188620        2.0498445870        7.3139092374
 H        -9.1994204787        1.9124075270        6.6768308082
 H        -8.3715917646        3.5496174425        6.6792784909
 H        -6.5913616889        0.8382424898        3.7499145572
 H        -7.5105805924        0.0121399306        4.9473334183
 H        -6.0753350568        0.9002024223        5.4166425245
 H       -10.7936190416       -1.4086790389        1.9700943427
 H       -11.8780332888       -1.8866956048        0.6215273272
 H       -12.1058100391       -0.4879653200        1.4981959447
 H        -9.3500379464       -1.6052283079       -1.3884609615
 H        -9.2275064439       -2.1556725700        0.3255506777
 H        -8.2249999449       -0.9026171698       -0.1807960911
 H       -16.5869828554        1.7397417818       -3.6372585493
 H       -17.6765568281        1.7150695792       -2.3528827002
 H       -16.3530227331        0.4654026997       -2.3922076000
 H       -16.1890715731        4.1102251653       -3.1898878531
 H       -15.3372620281        4.6227526505       -1.7188860431
 H       -17.1078256464        4.3081064079       -1.6354676062
 Na       -8.2248486218        3.4985285786       -0.4970230193
