117

 C       -17.4437636061        2.5134307518        0.3905414266
 C       -15.9864462965        2.3963684705       -0.1504353439
 O       -15.0182309796        2.3726913084        0.5403321205
 C       -15.8357566746        2.5814127269       -1.7464322845
 C       -14.2853967610        2.2526156957       -2.1287402060
 O       -13.6363860206        3.0281851938       -2.7710136584
 C       -13.7652273789        0.9134442014       -1.7424038785
 C       -12.4823759392        0.9475384614       -0.8933797552
 C       -11.3903804524       -0.1839293750       -1.2226547834
 O       -11.1456577709       -0.6669117933       -2.2823403482
 C       -10.4507495003       -0.4246897880        0.1729631886
 C        -9.7231311672        0.9974768394        0.5202037374
 O        -8.8387118338        1.5012545337       -0.2097563487
 C       -10.0250392866        1.7200279645        1.8149142267
 C        -9.1276084062        1.1805157156        2.9928596444
 C        -9.0720452281        2.1943012645        4.1204222616
 O       -10.1169664474        2.7758575480        4.4381053061
 C        -7.7478979360        2.2590949275        4.9973552386
 C        -6.9351722984        3.5055628956        4.4776240750
 O        -5.9445444800        3.3340240321        3.7372880561
 C        -7.5789335171        4.8719586118        4.5330948160
 C        -6.7615041998        5.8258095350        3.6155191796
 C        -6.6989684116        5.1568374187        2.1922523386
 O        -7.7320878258        4.7200120463        1.7335486164
 C        -5.3948262130        5.2124325933        1.2397779736
 C        -5.9071183644        5.8516208283       -0.1526570597
 O        -6.7671546487        5.2980145047       -0.8592916815
 C        -5.3869029580        7.1891463867       -0.6031347569
 C        -6.4984256881        8.0590893747       -1.2559138319
 C        -7.7893944090        8.0302815218       -0.4338051271
 O        -7.7395628624        7.8269258977        0.7420103113
 C        -9.2206754319        8.3722990939       -1.0076543021
 C        -9.5908294264        7.4217098868       -2.1577188097
 O        -8.8279457911        7.2854985754       -3.1130595944
 C       -10.8427055436        6.5574500824       -2.0044988053
 C       -11.1514860377        5.5737247261       -3.1439093940
 C       -10.1723784258        4.4145201648       -2.8910685812
 O        -9.9908850646        4.0552398152       -1.7246390177
 C        -9.6385244807        3.4076169143       -4.1006160870
 C        -8.0538816326        3.6589819269       -4.0668620872
 O        -7.4663001030        3.2938484410       -3.0626572078
 C        -7.2812589062        4.4650747577       -5.1302957581
 C        -9.8427776798        1.8891994823       -3.8485351117
 C       -10.2865561031        3.6936102984       -5.4145386585
 C       -10.1701701245        8.2465559422        0.1055976426
 C        -9.0265909847        9.8788301557       -1.5192320158
 C        -4.3132995204        6.1274808704        1.8176331664
 C        -4.8752970608        3.7853170418        0.9450692004
 C        -8.1837087774        2.3938793893        6.5644446949
 C        -6.9140494786        0.8945107198        4.8795752768
 C       -11.3004014889       -0.9661018524        1.3107150904
 C        -9.2927789312       -1.3509943258       -0.1217313286
 C       -16.7624761889        1.5555985051       -2.4197588689
 C       -16.1325256661        4.0739185039       -2.1209042897
 H       -17.7982678137        1.5476564710        0.7590425124
 H       -18.1078981042        2.9479666473       -0.3826375854
 H       -17.4833526112        3.0946189101        1.2700338701
 H       -13.5607078082        0.4542256002       -2.6685178624
 H       -14.5544777714        0.3287963481       -1.2393974166
 H       -12.7678816202        1.0653712386        0.1574280750
 H       -11.9509501344        1.9085835861       -1.0746777242
 H       -10.9422569768        1.2972743270        2.2210920620
 H        -9.8747791705        2.8119746304        1.8160289397
 H        -8.0730919195        0.8856053805        2.7456951646
 H        -9.5005786110        0.3210038121        3.4030957241
 H        -7.6513334893        5.3925327653        5.5336979043
 H        -8.6086226883        4.7760409031        4.2043745925
 H        -5.8306439479        6.0644244959        4.1246470661
 H        -7.3643587933        6.7124736867        3.5026086711
 H        -4.3965164566        7.2688484986       -1.0986009948
 H        -5.1188113397        7.7556598972        0.2575851368
 H        -6.7372885408        7.6308600394       -2.2165646095
 H        -6.1198101120        9.0463576084       -1.4244566863
 H       -11.7247341989        7.1998601492       -1.9780061469
 H       -10.9237886868        6.0430681142       -1.0499104591
 H       -11.0047000602        6.0019986643       -4.1818983079
 H       -12.1746359974        5.2252597570       -3.1625574032
 H        -7.4771532031        4.0764429809       -6.1351675694
 H        -6.2322554349        4.4673006187       -5.0231889412
 H        -7.6215027593        5.4857887655       -5.2105640905
 H        -9.3489910866        1.3882810214       -3.1076612870
 H        -9.5917831378        1.4235470980       -4.8262736731
 H       -10.9148617203        1.7250248282       -3.7081048222
 H        -9.9059329578        3.0151911032       -6.1484549055
 H       -10.0354149800        4.7814000463       -5.6432357219
 H       -11.3606486260        3.5439181281       -5.4159028666
 H        -9.8937908143        8.8480661799        0.9911411671
 H       -10.3026237795        7.2629087336        0.5614987969
 H       -11.2758463506        8.5184630591       -0.1581546391
 H        -9.8303116686       10.2662798378       -2.1711887346
 H        -8.1345556461        9.8771438300       -2.2491529486
 H        -8.9704346342       10.5892442380       -0.6978251366
 H        -4.7473484472        7.0756135235        2.0293945606
 H        -3.4504292041        6.3180677367        1.0757340389
 H        -3.9388316186        5.7622969343        2.7802659516
 H        -3.8926180892        3.7100253155        0.5024985623
 H        -5.6059929962        3.1914809273        0.3550572142
 H        -4.9152833326        3.2766712708        1.9139530201
 H        -7.4163790923        1.9498387597        7.1571603359
 H        -9.1216421109        1.8582220472        6.7746754555
 H        -8.2714430762        3.4141001639        6.8858679051
 H        -6.2772579327        0.8618289873        3.9584168399
 H        -7.4972979804        0.0158966367        4.8180994256
 H        -6.2517486286        0.8456972840        5.7262048606
 H       -10.6809017707       -1.3030900791        2.1536272586
 H       -11.9827572690       -1.7303980010        1.0138756515
 H       -11.9358032240       -0.2823578154        1.7833505404
 H        -9.2526467528       -1.4940441904       -1.2270549991
 H        -9.3957036461       -2.2570936059        0.4213639523
 H        -8.4025801853       -0.9421429468        0.2360132556
 H       -16.8182963970        1.8203223695       -3.5018860180
 H       -17.8030805823        1.7228098141       -2.1377601891
 H       -16.4320005275        0.5309608438       -2.3857570507
 H       -16.4219204322        4.2109962275       -3.1513619855
 H       -15.2946447208        4.6865180388       -1.8869412166
 H       -16.9793090216        4.2889397605       -1.5431049914
 Na       -8.0869502475        3.5076586643       -0.4559432696
