117

 C       -11.4933149943       10.7591892286       -3.5578807310
 C       -10.8785836059        9.3915150749       -3.9266573337
 O       -10.9519796330        8.4415680865       -3.2438840854
 C       -10.0592013456        9.2745363645       -5.3459702373
 C        -8.7663910010        9.9438827988       -4.8086487447
 O        -8.5008247283       11.0487311445       -5.2470347197
 C        -7.7881718244        9.2078067194       -3.8205752791
 C        -7.4394376174       10.0392833211       -2.5609989847
 C        -6.7401308141        9.2804369459       -1.4877674862
 O        -5.8518997336        8.4383738605       -1.6269863044
 C        -7.3941222147        9.4429873578       -0.0134953064
 C        -8.6366240350        8.4207432941       -0.0150908701
 O        -9.7152400657        8.7994275619        0.3203939509
 C        -8.2444576500        6.9179336614       -0.2505238361
 C        -9.4462670902        6.2959499452       -0.9848716813
 C        -9.4643626081        4.7603887514       -0.9863949226
 O        -8.7495127879        4.2486400702       -0.1168063245
 C       -10.4621231107        3.9010351343       -1.9705730594
 C       -11.3259352170        3.0366043999       -0.9371978698
 O       -10.9615014346        1.9820667616       -0.4349031730
 C       -12.6811243213        3.6905869145       -0.4274595662
 C       -13.1231346369        3.0802297843        0.8841665170
 C       -12.1881003940        3.5672455433        1.9497766036
 O       -11.4455430457        4.5394893960        1.7383050134
 C       -12.3679164927        2.9293856257        3.3582874418
 C       -11.6195032944        1.5632205734        3.3639157383
 O       -10.5543803787        1.4213416334        2.8557079569
 C       -12.2452735323        0.6055470903        4.2857345264
 C       -11.4974116482       -0.7114706849        4.2713009683
 C       -12.0519530495       -1.6088284045        3.0996320068
 O       -12.7737666476       -1.0616371909        2.2692005585
 C       -11.4989613606       -3.0484691229        2.9160396668
 C       -10.1117609244       -2.8865346846        2.0580438363
 O        -9.0670128910       -2.6830466659        2.5417706689
 C       -10.3114659427       -2.9373314394        0.5454922189
 C        -9.0696890066       -2.6234468032       -0.3036511058
 C        -8.5729512250       -1.2316871705        0.0964413871
 O        -9.3227234977       -0.3254057648        0.3595803422
 C        -6.9917847525       -0.8088476194        0.0316292053
 C        -6.6595364980       -0.0885193610        1.4067571511
 O        -7.2458404017        0.9188116374        1.7910308074
 C        -5.7566136628       -0.7421332879        2.3966474507
 C        -6.1379129003       -2.0452656958       -0.0938170823
 C        -6.8312755752        0.2067930768       -1.1998969389
 C       -11.4005799006       -3.9425648106        4.2407563897
 C       -12.6707891109       -3.7318871769        2.0849050107
 C       -11.7325792258        3.9648615828        4.3150136089
 C       -13.8446258803        2.8869378124        3.6729197683
 C       -11.2146968435        4.7790403728       -2.9402073694
 C        -9.5268032538        2.7951000188       -2.6835924178
 C        -6.3915839952        8.9069181184        1.0328752338
 C        -7.8029125038       10.9089400162        0.3358046642
 C       -10.0734809301        7.7915432631       -5.7112899151
 C       -10.7019278196       10.1660582863       -6.4476124607
 H       -11.0664182737       11.5196530169       -4.1924241106
 H       -11.2976762036       11.0744462021       -2.4927999824
 H       -12.5670318493       10.7414567651       -3.9692955494
 H        -6.8219510092        8.9661333593       -4.3255713605
 H        -8.3350774005        8.3802230577       -3.3999389902
 H        -8.2887590474       10.5406835685       -2.0254342492
 H        -6.8599511225       10.9352525276       -2.7521616349
 H        -8.0644271628        6.4287288841        0.7362184194
 H        -7.4009885928        6.6916344401       -0.8780362900
 H        -9.4522993095        6.6581405454       -2.0423999313
 H       -10.3514947091        6.8218889107       -0.4829731127
 H       -13.3785583263        3.5081167737       -1.1770375894
 H       -12.3464220136        4.7405820060       -0.4528810365
 H       -13.3137370490        1.9875512689        0.8309470101
 H       -14.1242792033        3.4280452038        1.0679853862
 H       -13.1919902099        0.2938757102        3.7850240269
 H       -12.4723674416        1.1137466197        5.2364730363
 H       -11.6029111320       -1.2877434452        5.2153845510
 H       -10.3807331281       -0.7317600843        4.1365493800
 H       -11.0549611102       -2.2212655857        0.2315498010
 H       -10.7197800377       -3.9236547748        0.2566189707
 H        -9.3866393354       -2.4012993967       -1.2954757428
 H        -8.2859438618       -3.3897702652       -0.1907937647
 H        -6.0274269757       -1.7500487356        2.6613333198
 H        -5.8054251566       -0.2140434975        3.3943107508
 H        -4.7424717942       -0.8073335915        2.0047857629
 H        -6.5465164617       -2.7052801882       -0.8146697995
 H        -6.1254023955       -2.5322649965        0.8822011307
 H        -5.0587406282       -1.9767511659       -0.2611444084
 H        -6.5781394249        1.2783647305       -0.9900632555
 H        -7.7445077464        0.2963666710       -1.8574258483
 H        -5.9411789680       -0.0780333789       -1.7938608888
 H       -12.3260256030       -4.3513303903        4.5739130415
 H       -10.8826848214       -3.4360023757        5.0105997983
 H       -10.6976764377       -4.6803473757        3.9035591639
 H       -13.4545564186       -3.8091986828        2.8707001861
 H       -12.3628666149       -4.7179685546        1.7549370521
 H       -12.9950643631       -3.2068201646        1.1893923371
 H       -12.3342542199        4.9029289125        4.2436326869
 H       -10.6637447778        4.1314571028        4.0750022394
 H       -11.8330503669        3.6320533647        5.3360866652
 H       -14.3062210641        3.7805044102        3.3291740589
 H       -13.9706782739        2.9934735416        4.7515445285
 H       -14.3473343706        2.0046410472        3.3859667216
 H       -11.7732585008        4.1565769762       -3.5956962282
 H       -10.4825768669        5.3747994323       -3.5883377446
 H       -11.8378557918        5.4953979506       -2.4017721435
 H        -9.6691753813        1.7761276913       -2.3083733377
 H        -8.4188165197        2.8385399895       -2.5484722968
 H        -9.7730274161        2.7462987886       -3.7429887775
 H        -5.4814670561        9.4948509987        1.0661960440
 H        -6.1059420259        7.8814020671        0.7405897078
 H        -6.8229024114        8.8639553655        2.0369724464
 H        -7.6173682662       11.5751049671       -0.4932623494
 H        -7.2266946908       11.1976183789        1.2217287523
 H        -8.8607587338       10.9543814950        0.5274950570
 H        -9.7663271186        7.1665819611       -4.8221149832
 H        -9.4018643213        7.6311686806       -6.5985051036
 H       -11.0622798408        7.4777187352       -6.0252500492
 H       -10.0540463451       10.2031722828       -7.3043305756
 H       -10.7243512660       11.2355359386       -6.2328515133
 H       -11.7489763831        9.8412152053       -6.7733182292
 Na       -9.1714348522        2.0727419304        1.0111849640
