117

 C       -17.4556544509        2.4267723093        0.4829151773
 C       -15.9862210241        2.3936643781       -0.0885128632
 O       -14.9849926619        2.3122533952        0.6069097666
 C       -15.8166069720        2.5564253781       -1.6902862953
 C       -14.3789872967        2.2727790505       -2.1367181765
 O       -13.6907641961        3.0960987134       -2.7735989637
 C       -13.6451576832        0.9391113332       -1.8413760885
 C       -12.4594870704        1.1867761981       -0.8786574931
 C       -11.5338004884       -0.0649287957       -0.8480773582
 O       -11.5550942655       -0.8783723101       -1.7633619419
 C       -10.4749725337       -0.3062725547        0.3310343486
 C        -9.6149013210        1.0215498128        0.5638241625
 O        -8.8337364707        1.2855684556       -0.3010807065
 C       -10.0085295984        1.9130916720        1.7785351322
 C        -9.1647590633        1.3526691357        2.9116846608
 C        -9.1815382516        2.1705648737        4.2228360157
 O       -10.0547507509        2.9072249968        4.5162509816
 C        -7.8270778104        2.1812179739        5.0336011652
 C        -6.9932470927        3.4661451756        4.4339429934
 O        -5.9308457961        3.2574012499        3.9444188704
 C        -7.5890518010        4.8914681539        4.5345903259
 C        -6.9445413502        5.8165039186        3.4503154843
 C        -6.7718469588        5.0495881615        2.1491185131
 O        -7.6850660901        4.3556998362        1.7001221644
 C        -5.4797883767        5.3001375438        1.3448434951
 C        -5.8928795963        5.9500324472       -0.0576299796
 O        -6.7040631946        5.4158166772       -0.7297701564
 C        -5.2947646238        7.2940082662       -0.6339062720
 C        -6.4923415367        7.8541556296       -1.4625320915
 C        -7.6993615580        7.9746951801       -0.5166470086
 O        -7.5372554216        7.7175182626        0.6731780020
 C        -9.1169417902        8.3588977147       -1.1366295417
 C        -9.5926642849        7.2567807311       -2.2969057682
 O        -8.8966193870        7.1589991906       -3.2577049945
 C       -11.0231113850        6.6791278689       -2.2169455065
 C       -11.1318808207        5.4918562472       -3.2042635955
 C       -10.0635993650        4.3245779996       -3.0138394784
 O        -9.6517449328        4.0763974118       -1.8894756192
 C        -9.5559329882        3.5252265150       -4.1738182224
 C        -7.9998656021        3.6188786578       -4.0546052570
 O        -7.4821708859        3.2401022748       -3.0076511519
 C        -7.2386389015        4.2427260377       -5.2009435923
 C        -9.9413992413        2.0309474605       -3.8193588730
 C       -10.1795285118        3.9160357358       -5.5293097477
 C       -10.1314726268        8.4686743869        0.0588914067
 C        -9.0424950086        9.6967984283       -1.8162588657
 C        -4.3727099789        6.0799303135        2.0654529055
 C        -4.9507046299        3.8738537875        1.0088138640
 C        -8.2149711573        2.6489368572        6.5224241710
 C        -6.8917856729        0.9705466985        4.8962153870
 C       -11.3858654159       -0.7749970958        1.5126553959
 C        -9.5197694286       -1.4841661733       -0.1521035610
 C       -16.7811357454        1.6279703519       -2.4104316126
 C       -16.1048042053        4.0299553446       -2.1092026402
 H       -17.7691856359        1.4993160409        0.9417433571
 H       -18.1560487699        2.7996268781       -0.2401362485
 H       -17.4797026272        3.1467203085        1.3692617145
 H       -13.2271874559        0.4782034351       -2.7905351253
 H       -14.2693852481        0.1414682851       -1.4577786831
 H       -12.8615798069        1.3578049215        0.1159346947
 H       -11.9326835254        2.0986426462       -1.1207197516
 H       -11.0415454980        1.8093553003        2.0916743223
 H        -9.5833894057        2.8995370114        1.6807389140
 H        -8.1729724864        1.2405779674        2.6069503874
 H        -9.4833350562        0.2653441822        3.2045193611
 H        -7.5068031532        5.3197037929        5.5012070213
 H        -8.6769316371        4.8710828440        4.3466435747
 H        -5.9615019254        6.1138597929        3.8200148553
 H        -7.5468872644        6.7241849002        3.2762505350
 H        -4.5082792011        6.9901292060       -1.2951348993
 H        -4.7731834323        8.1120058560       -0.0806601503
 H        -6.7272788037        7.1984389881       -2.3441418404
 H        -6.2409664502        8.8647648341       -1.8968169844
 H       -11.8514983443        7.3752004864       -2.3388689880
 H       -11.1262758170        6.2590111172       -1.2221770591
 H       -11.2722144719        5.8207337269       -4.2057238905
 H       -12.0536598296        4.8752447864       -3.0218695543
 H        -7.7674248066        4.2951660554       -6.1175890507
 H        -6.2676426954        3.7745441650       -5.4518545644
 H        -7.0608184949        5.3119628912       -4.9876136820
 H        -9.3074661981        1.7413964094       -2.9306568351
 H        -9.7859218591        1.3617360239       -4.6131082251
 H       -10.9209803801        1.8533157864       -3.4804036474
 H        -9.6188453452        3.4026314259       -6.3494757776
 H       -10.2486591832        4.9498585645       -5.7296262100
 H       -11.1765219180        3.4671160192       -5.5553428293
 H        -9.7253877284        9.0986045001        0.8535326405
 H       -10.3567121804        7.5365400016        0.5928497070
 H       -11.0627872686        8.8718590500       -0.1407380482
 H       -10.0122982843       10.1860933829       -1.8873503306
 H        -8.5814866829        9.7102062866       -2.7275313832
 H        -8.5803897253       10.3594161131       -1.0824372114
 H        -4.6461709339        7.1090045536        2.3610836254
 H        -3.5187200680        6.1235656182        1.4576385512
 H        -4.0837985908        5.4751989822        2.9012450012
 H        -4.1174765169        4.0567435639        0.2456252771
 H        -5.7058178733        3.2044306946        0.5868759085
 H        -4.4486339174        3.3738818738        1.8632573930
 H        -7.3479917266        3.0513574908        7.0367506602
 H        -8.6021092991        1.8615072930        7.0968983998
 H        -8.9313695731        3.4404680402        6.5590580598
 H        -6.4128632687        0.9712431686        3.9246037005
 H        -7.4520590962        0.0112978744        4.9479762934
 H        -6.1357777582        0.9678502516        5.6897900463
 H       -10.9316099985       -0.9081461165        2.4770047594
 H       -11.8991397340       -1.7414423109        1.3177608446
 H       -12.2214562619       -0.0707826240        1.7527724593
 H        -8.9578207061       -1.1663912393       -1.0164734062
 H       -10.1659900385       -2.3635135526       -0.3890393786
 H        -8.8387934215       -1.7743535144        0.7027397830
 H       -16.7119334262        1.5635044396       -3.4675344917
 H       -17.7526120258        2.0198425671       -2.2258395505
 H       -16.6587427905        0.6101272541       -2.0373812480
 H       -16.1376314834        4.0296513477       -3.2130946331
 H       -15.2726939578        4.7016833698       -1.8326630676
 H       -17.1559759422        4.3361204528       -1.8882284336
 Na       -7.8847226717        3.4477723012       -0.5353090907
