117

 C       -17.2857659765        2.4543554749        0.5080205509
 C       -15.9110517406        2.3958814606       -0.1283575837
 O       -14.8705704280        2.2395467465        0.5200057407
 C       -15.7883439435        2.5995762339       -1.6794986158
 C       -14.3431629150        2.3806728015       -2.1434736663
 O       -13.7123387746        3.2306260864       -2.7056900715
 C       -13.7285433785        1.1088423410       -1.7069052133
 C       -12.4518713951        1.2176848323       -0.8660609972
 C       -11.7425867559       -0.1315785688       -0.7952023583
 O       -12.0633384791       -1.0347886452       -1.5160535350
 C       -10.6210667930       -0.3244549440        0.3971221977
 C        -9.8143101095        1.0015097937        0.6113166727
 O        -8.9638819839        1.1291414105       -0.3035913097
 C        -9.9332754286        2.0351064389        1.7935478526
 C        -8.9213876802        1.4638211596        2.8807450171
 C        -9.0649362638        2.2315294747        4.1975558316
 O       -10.1058712679        2.8945069844        4.3877541926
 C        -7.8442624458        2.3242633409        5.2068551112
 C        -6.9351021095        3.5151960078        4.4935563719
 O        -5.8306004643        3.3393359986        3.9996969778
 C        -7.6698934732        4.9284004589        4.4451395148
 C        -7.1178766006        5.8331754992        3.3490262497
 C        -6.8079250593        5.0236228152        2.0826452803
 O        -7.5457484055        4.1405992305        1.6418495977
 C        -5.4983635772        5.2865224241        1.3027117239
 C        -5.8917841558        5.8728100828       -0.1167248407
 O        -6.5344349456        5.1218173156       -0.9116046410
 C        -5.4061257928        7.2353105617       -0.6432565008
 C        -6.4686704921        7.9904778640       -1.4620868736
 C        -7.7500825874        7.9910912088       -0.6776267686
 O        -7.6943256322        7.6405140639        0.4924897940
 C        -9.1350670970        8.3743787573       -1.2958505563
 C        -9.5591810805        7.2796434317       -2.2777582265
 O        -8.8122222691        6.8944295109       -3.2226506987
 C       -10.9538093605        6.6508981840       -2.1678357766
 C       -11.1560982177        5.5872756015       -3.2239231768
 C       -10.1343405616        4.4985863752       -2.8318343594
 O        -9.7200502923        4.3632487542       -1.7033938499
 C        -9.4896808519        3.5425748923       -4.0008484429
 C        -7.8413216095        3.5897560531       -4.0487540766
 O        -7.2463261113        3.2046402638       -3.0900870334
 C        -7.0155506540        4.0431052519       -5.2559939168
 C       -10.0313554359        2.1229148989       -3.8046044158
 C       -10.0283331699        3.9526180353       -5.5002746422
 C       -10.1129979744        8.5332251348       -0.1214914474
 C        -8.9625558008        9.6959257891       -2.1349525723
 C        -4.4782527677        6.1533286424        2.0819161891
 C        -4.7844391129        3.9410694059        0.9553288924
 C        -8.2193556033        2.6769087294        6.6015783477
 C        -7.1863367528        0.9695857221        5.2357960486
 C       -11.4068380599       -0.6279246180        1.6834545397
 C        -9.6084882607       -1.5205176915        0.1077992907
 C       -16.6307083226        1.5471554280       -2.4309705321
 C       -16.3115214679        4.0471292446       -1.9827753676
 H       -17.7380594536        1.4404308699        0.5649812851
 H       -17.9292014393        3.0794705681       -0.1151321235
 H       -17.3035345678        2.8117088693        1.4722624354
 H       -13.4849127750        0.4155036126       -2.4942336076
 H       -14.4748244417        0.4720956149       -1.1679257824
 H       -12.6511899747        1.5744367248        0.1686094142
 H       -11.7299187701        1.9479775541       -1.3225975651
 H       -10.9511277528        2.1116985479        2.2155833611
 H        -9.5060348855        3.0323951250        1.5189124307
 H        -7.8345183332        1.6805197240        2.4972272815
 H        -9.0350744367        0.4193557885        2.9430090682
 H        -7.5648034144        5.3747068791        5.4759720118
 H        -8.7385030347        4.9172526654        4.2857366162
 H        -6.2330822404        6.3966245297        3.6806543472
 H        -7.8680148408        6.5707327391        3.0290658653
 H        -4.4433115557        7.2212721317       -1.2429442280
 H        -5.1574117835        7.8027686059        0.2383888437
 H        -6.6696943733        7.3934124359       -2.3308960447
 H        -6.1402030921        8.9370952482       -1.8331099403
 H       -11.7346868732        7.4430571361       -2.2448224432
 H       -11.1485031491        6.1077448566       -1.2005371308
 H       -10.7897707142        5.9589243890       -4.2127884905
 H       -12.1036845760        5.1287210109       -3.4183612779
 H        -7.4256217704        4.0009402953       -6.3100964716
 H        -6.1319789214        3.4183131106       -5.2809738057
 H        -6.7048253322        5.0755127110       -5.1606050343
 H       -10.0163643632        1.8124842622       -2.7524928421
 H        -9.5118391717        1.3169209048       -4.4223909384
 H       -11.1424143274        1.9898028867       -4.0965701673
 H        -9.8674738044        3.2005371105       -6.2221780764
 H        -9.3773151766        4.7984074356       -5.8303816590
 H       -11.0503911398        4.3285499181       -5.5759503018
 H        -9.9115873502        9.4524352464        0.3726985116
 H       -10.1191468641        7.7697933127        0.6252910294
 H       -11.1694319768        8.6895554952       -0.3729611118
 H        -9.8688659294       10.1208796620       -2.4830472518
 H        -8.2745293771        9.4114176715       -3.0013080094
 H        -8.4933696419       10.4999448603       -1.5996201003
 H        -4.8531741026        7.1673778987        2.1824975783
 H        -3.5899677020        6.2036268379        1.4031318480
 H        -4.0913380404        5.6939277580        3.0237018014
 H        -3.9174238232        4.0736638799        0.3927635966
 H        -5.4838597647        3.2786907182        0.4581251675
 H        -4.3841513344        3.4875448108        1.8489477357
 H        -7.7967000729        3.6506991543        6.9767304898
 H        -7.8957799471        1.8622195104        7.3385333086
 H        -9.3330871485        2.8245066106        6.7854200623
 H        -6.9270831024        0.6364352131        4.2340303632
 H        -7.7443339052        0.2020194320        5.7537442799
 H        -6.2614521417        1.0760004267        5.8046935331
 H       -10.7954848900       -0.9579564352        2.5574537246
 H       -12.0354205974       -1.4922919924        1.5826223326
 H       -12.0350149449        0.1635130039        2.0701834397
 H        -8.6921951562       -1.0682470740       -0.3331599706
 H       -10.0612934713       -2.1973829108       -0.5950160769
 H        -9.3102913703       -2.0206719866        1.0078200965
 H       -16.1598847260        1.3359464697       -3.4050254348
 H       -17.7147402552        1.7454470604       -2.6075516043
 H       -16.5201999585        0.6105392941       -1.9066115168
 H       -16.0155492002        4.5276179938       -2.9281923593
 H       -15.9030489330        4.6744371586       -1.1779383953
 H       -17.3969866188        4.0077018794       -2.0379432909
 Na       -7.8388132847        3.2173595798       -0.7993941657
