117

 C       -17.2857524329        2.3867432289        0.5923267566
 C       -15.8879608849        2.4787171292       -0.0824485178
 O       -14.9319430680        2.2548972022        0.5628288754
 C       -15.7719934945        2.7033283688       -1.6487604705
 C       -14.2919767667        2.5447416966       -2.1066456001
 O       -13.6713782381        3.4879576148       -2.5887408862
 C       -13.5964763938        1.1600337295       -1.7586325789
 C       -12.3063427748        1.2313731168       -0.8909680428
 C       -11.8046886851       -0.2558131199       -0.5598599212
 O       -12.2353300826       -1.2739525768       -1.0520419350
 C       -10.7103902256       -0.3297214795        0.5690589526
 C        -9.8650912633        0.9823503330        0.5521904471
 O        -9.2003756370        1.1787173733       -0.4333375535
 C        -9.8774085044        1.8530103877        1.8361665502
 C        -8.7021335781        1.6592683422        2.8552343931
 C        -9.0688095143        2.2708823325        4.1862123182
 O       -10.1303938123        2.7807379449        4.3824529272
 C        -7.9419516204        2.4711459182        5.1574147825
 C        -7.0242441039        3.5367444415        4.6020996608
 O        -5.8905381945        3.2663878335        4.1922870348
 C        -7.6821210272        4.8576709097        4.4315515651
 C        -7.2325921455        5.6642691956        3.1589732273
 C        -6.7457164096        4.8347286851        1.8718771140
 O        -7.5128699105        4.0488475832        1.3606784551
 C        -5.3671976368        5.1506003706        1.1496667881
 C        -5.7020118189        5.6505983106       -0.3900969585
 O        -6.3818017973        5.0372104568       -1.1037855217
 C        -5.3284098528        7.1891669320       -0.6986152810
 C        -6.5146224092        7.8953467235       -1.4192659584
 C        -7.8606532104        7.9873542248       -0.6562351479
 O        -8.0081149225        7.5216848959        0.4447674376
 C        -9.1397530704        8.5044900291       -1.4476780740
 C        -9.5336477920        7.2650013003       -2.3495841901
 O        -8.6484723709        6.7913578766       -2.9817209542
 C       -10.9282954489        6.7974848171       -2.2759421237
 C       -11.1506825360        5.5168308776       -3.1164962274
 C        -9.9275684321        4.5164500363       -2.8812398072
 O        -9.6296250887        4.2800393410       -1.7118831708
 C        -9.3527177749        3.6610868782       -4.0326148126
 C        -7.7964406158        3.5055117172       -3.9724639978
 O        -7.2205358017        2.9991477051       -2.9730827198
 C        -7.0294785342        3.7932710707       -5.2327737137
 C        -9.8144521789        2.2272387932       -3.6275709055
 C        -9.8903242729        4.1151601064       -5.4384910913
 C       -10.2048463259        8.9350444781       -0.4422206745
 C        -8.7984893627        9.7680134050       -2.3607575760
 C        -4.5680414937        6.3337237358        1.8560848620
 C        -4.5508291833        3.8423425142        1.0601291114
 C        -8.5329459520        2.9135865616        6.5162622193
 C        -7.0393898602        1.2529040799        5.3610860500
 C       -11.5447299976       -0.5696025124        1.7928356015
 C        -9.9180400512       -1.5815190829        0.3033509846
 C       -16.5898313161        1.6193159929       -2.3789610816
 C       -16.4438464781        4.0446227217       -2.0459500239
 H       -17.8043308109        1.5375285856        0.2138388788
 H       -17.9650126054        3.2406038875        0.5010798546
 H       -17.1314600132        2.1981663323        1.7050631087
 H       -13.3188870002        0.6460535738       -2.6849443404
 H       -14.2144832900        0.4193539746       -1.3471769843
 H       -12.5193478686        1.7972767423        0.0067058228
 H       -11.4957150625        1.7081123289       -1.4140414514
 H       -10.8380647509        1.6604607918        2.3623207510
 H        -9.9718181803        2.9090779573        1.5467456258
 H        -7.8193971178        2.0172911230        2.4583847832
 H        -8.6811610316        0.5498645013        2.9111482400
 H        -7.5712558310        5.5056652206        5.2797724060
 H        -8.7766540257        4.7248838388        4.3615790812
 H        -6.3787837246        6.2057534083        3.5335587310
 H        -7.9300583342        6.4132570194        2.7986728795
 H        -4.4583819830        7.3332829946       -1.3047210440
 H        -5.1911354584        7.7792580053        0.2441380949
 H        -6.6098785581        7.4755765136       -2.4437599214
 H        -6.2363822732        8.9618941532       -1.5916583291
 H       -11.5658098692        7.5707745701       -2.6666277944
 H       -11.3152081218        6.5975686157       -1.3190743136
 H       -11.1853395262        5.7664452167       -4.1656659862
 H       -12.1251564370        5.0220923012       -2.8686775419
 H        -7.3474177428        3.0904121381       -5.9413623440
 H        -5.9552295619        3.7243057546       -5.2902908523
 H        -7.3637074241        4.7420354132       -5.6700736356
 H        -9.3742967717        2.0466319967       -2.6832186207
 H        -9.4519643637        1.4754938914       -4.2700674665
 H       -10.8144536655        2.0131969014       -3.5166660604
 H        -9.2811055248        3.6706705456       -6.2781472940
 H        -9.8678827635        5.1725184517       -5.6387202841
 H       -10.9290155570        3.8135565798       -5.5187119816
 H       -10.0311833718        9.7139084044        0.3535003288
 H       -10.5569353711        8.0123231232        0.0726448914
 H       -11.1559580626        9.3204857761       -0.8823081085
 H        -9.7180577090        9.9464897000       -3.0095698641
 H        -7.9250940344        9.6886475045       -2.9740418124
 H        -8.6964332102       10.7142584629       -1.7696402135
 H        -5.2799900549        7.1282593157        2.0634050432
 H        -3.7146669959        6.6910898063        1.2725357893
 H        -4.1989413460        5.9574853904        2.7814030594
 H        -3.5050926942        4.0000766724        0.6808508836
 H        -5.1052681238        3.2142541954        0.3689438818
 H        -4.3134991671        3.3124408713        1.9724347181
 H        -8.5665996274        3.9650480327        6.6498116753
 H        -8.0145977650        2.5406464688        7.3517075768
 H        -9.5327812656        2.6018264592        6.6116157294
 H        -6.5112252428        0.9171821007        4.4475734309
 H        -7.6467081198        0.4638847749        5.7736637415
 H        -6.2936628821        1.4543727566        6.1032143430
 H       -11.0452395101       -0.5392170248        2.7125398111
 H       -11.9289636154       -1.5826159707        1.8711469838
 H       -12.3680384961        0.1173937089        1.8415714424
 H        -9.2567657961       -1.5245258867       -0.5262673438
 H       -10.6811665677       -2.3308088343        0.1050889105
 H        -9.3112955793       -1.8077726953        1.1730436720
 H       -16.6181548822        1.8172522014       -3.4633598032
 H       -17.5951389459        1.5705674015       -1.9783681206
 H       -16.2018789173        0.5733852975       -2.2351973390
 H       -16.0066499225        4.3986061507       -2.9483409954
 H       -16.1636919368        4.8012822073       -1.3239313121
 H       -17.5202672693        4.0590807840       -2.1838243994
 Na       -7.8866861042        3.1539062352       -0.8150344753
