117

 C       -17.3002663567        2.3633226293        0.5884670137
 C       -15.9335203150        2.4147167056       -0.0405813775
 O       -14.9034327695        2.3293797457        0.6051274650
 C       -15.8058861166        2.6679625285       -1.6128836845
 C       -14.2223685415        2.5919849214       -1.9590995728
 O       -13.7125513690        3.5433007659       -2.4804201921
 C       -13.5557618592        1.2534550991       -1.8808629193
 C       -12.3122294023        1.1391853076       -0.9811959614
 C       -11.8482647163       -0.2333903936       -0.5416756877
 O       -12.3323645748       -1.2582803924       -0.8919670606
 C       -10.8163613178       -0.3598065962        0.7028118382
 C        -9.8849512823        0.8961969419        0.6975704801
 O        -9.3240321041        1.1699916055       -0.3830357485
 C        -9.8009335973        1.9061395823        1.7813005163
 C        -8.6894131476        1.5967809037        2.8153424929
 C        -9.0683094850        2.3164893465        4.1463911646
 O       -10.2495981281        2.6637210981        4.3240435878
 C        -7.9423434766        2.5107233355        5.2776802927
 C        -7.0004242196        3.5643597929        4.6012961056
 O        -5.8367103999        3.3586140846        4.1876506715
 C        -7.7067369091        4.9064472034        4.2343888725
 C        -7.1219051290        5.6462227445        3.0142794855
 C        -6.6923377352        4.8367481718        1.7955301071
 O        -7.4452978549        4.0146424833        1.2747771398
 C        -5.3785923449        5.1757385409        1.0920707110
 C        -5.7331386942        5.8192064202       -0.3182588477
 O        -6.2202019679        5.0320392672       -1.1695580368
 C        -5.3426236473        7.1475088090       -0.7671666999
 C        -6.5457189986        7.8617429708       -1.4527995273
 C        -7.8741518756        8.0050768205       -0.6534842112
 O        -8.0892761388        7.4903442918        0.4160967563
 C        -9.1355404881        8.5758078708       -1.4571228396
 C        -9.5140707572        7.4131807771       -2.3415202026
 O        -8.6476428640        6.7763443992       -2.9238881463
 C       -10.9363166900        6.8174675146       -2.3435508167
 C       -11.1537147905        5.4542863360       -3.0637484793
 C        -9.9384246614        4.5228044836       -2.7868948248
 O        -9.5736647142        4.3493140392       -1.6483623421
 C        -9.3567155304        3.5938939401       -3.9839004394
 C        -7.7955507634        3.4841881339       -4.0063307605
 O        -7.1776454073        2.9798889167       -3.0728893158
 C        -6.9376915777        3.7599760210       -5.2472847457
 C        -9.8465079627        2.1681727243       -3.7163559371
 C        -9.7841854214        4.0044323838       -5.3795463473
 C       -10.2996195546        9.0636375362       -0.5641386384
 C        -8.6619730179        9.7194197537       -2.4835380156
 C        -4.5666295469        6.2099306752        1.9279232997
 C        -4.5804822691        3.8374748700        1.0434396424
 C        -8.6950740860        2.9918949855        6.5501749084
 C        -7.0238308068        1.2445121784        5.4559402382
 C       -11.6997483165       -0.5481997211        1.9622329808
 C        -9.9266244918       -1.6445363634        0.2973920987
 C       -16.6060486192        1.5689283165       -2.3928658833
 C       -16.3018809316        4.0785304954       -2.0413017134
 H       -18.0478361596        1.7381545541        0.0849973451
 H       -17.6971783243        3.4295722013        0.5166580372
 H       -17.2619401007        2.1499538945        1.6328101691
 H       -13.3739050184        0.9076074513       -2.9103245095
 H       -14.2446730358        0.4535078570       -1.5247930885
 H       -12.6200763512        1.6460680751       -0.0906857274
 H       -11.4583872364        1.6616146302       -1.3804754278
 H       -10.7764035780        2.1285410904        2.1891238940
 H        -9.5480152929        2.8466648995        1.3150572936
 H        -7.7791848701        2.0565922729        2.2513807143
 H        -8.6041263059        0.5042252492        2.8670061443
 H        -7.6584382063        5.6670372333        5.0191159787
 H        -8.7474426128        4.8274018892        4.0498001596
 H        -6.3379981548        6.3085675189        3.4096680454
 H        -7.8542450911        6.3325042702        2.5593727939
 H        -4.6399755010        6.8636325217       -1.5850548787
 H        -4.8411832610        7.7583673028       -0.0300757642
 H        -6.7710909902        7.2395519473       -2.3809951939
 H        -6.2968226092        8.8759609149       -1.8479478168
 H       -11.6913323128        7.4367521096       -2.8574779667
 H       -11.3466384909        6.6727222404       -1.3732969721
 H       -11.2036899113        5.6041368876       -4.1631865650
 H       -12.0933369904        5.0509403319       -2.7547718004
 H        -6.9021229937        2.7884795694       -5.7701850456
 H        -5.9133891806        3.9637762721       -5.0711866934
 H        -7.2713627342        4.4705004068       -6.0086585185
 H        -9.4050201572        1.6373185657       -2.9618754562
 H        -9.6975395411        1.5890194328       -4.6340192273
 H       -10.9165925655        2.1151825291       -3.5802118323
 H        -9.2495476422        3.4864875105       -6.1621949408
 H        -9.5528232133        5.0916216614       -5.5323592102
 H       -10.8331443209        3.9212495552       -5.5114122227
 H       -10.0717035025        9.8297555457        0.1298086624
 H       -10.8032233297        8.3016765199       -0.0288369074
 H       -11.1220339920        9.5640067744       -1.1671422809
 H        -9.4639073161        9.9353300470       -3.1682025940
 H        -7.7963303882        9.3563587280       -3.1035245322
 H        -8.3280602253       10.6186300026       -2.0417068819
 H        -5.1730048367        7.0258305766        2.0853205710
 H        -3.6219968394        6.5400449600        1.4157696227
 H        -4.3419220703        5.7457109505        2.8600262273
 H        -3.5357802370        3.9337195528        0.7037811288
 H        -5.1401403550        3.1129953136        0.3964064216
 H        -4.4014139106        3.4009913874        2.0446668253
 H        -9.0452708211        3.9558968385        6.4402213041
 H        -8.1299149604        3.0285700329        7.4571376449
 H        -9.5141302297        2.3711316586        6.7443647834
 H        -6.5470332190        1.0581693578        4.4414150030
 H        -7.5980443406        0.3968548540        5.7390676264
 H        -6.1986233545        1.3566710717        6.1480510703
 H       -11.1252996217       -0.3899586730        2.8975978581
 H       -12.0310722675       -1.5630371698        2.1704027423
 H       -12.5305370248        0.1082217536        1.9799382688
 H        -9.5034803548       -1.5834243212       -0.7506763356
 H       -10.5640917960       -2.5289291602        0.3472849600
 H        -9.0806006481       -1.6832045520        0.9399918879
 H       -16.8456525952        1.8728384841       -3.4237748957
 H       -17.5015591121        1.3799258753       -1.8384924029
 H       -16.1645198288        0.5917600722       -2.4136576242
 H       -15.9407749270        4.2488632753       -3.0832961403
 H       -15.7990945552        4.8838335697       -1.4618064529
 H       -17.3788728936        4.3173221267       -1.9974057637
 Na       -7.8885292822        3.1473233509       -0.7001569706
