117

 C       -11.6569379405       10.6587458066       -3.5203190168
 C       -11.0233658987        9.3739085794       -4.0475837319
 O       -11.0080422890        8.4087513089       -3.2536414233
 C       -10.1536746679        9.2494485069       -5.3207719832
 C        -8.6631692808        9.9104430728       -4.9017256389
 O        -8.4402155343       11.0278020806       -5.2348300757
 C        -7.8055962862        9.1260505864       -3.8738251438
 C        -7.3976355379       10.0999076292       -2.6946612416
 C        -6.8727619838        9.2356498917       -1.5075758334
 O        -6.0593572701        8.3650752360       -1.7180881837
 C        -7.4308678633        9.3597721129       -0.0784077230
 C        -8.6144671931        8.3564748167        0.0454672244
 O        -9.7657438383        8.6720515966        0.2056972099
 C        -8.3268907381        6.9091760573       -0.2325802953
 C        -9.4819006057        6.2584492090       -1.0010723415
 C        -9.4530888994        4.7576998127       -0.9567567217
 O        -8.6987463560        4.1545151847       -0.1205368379
 C       -10.4250396617        3.8792599766       -1.8802730937
 C       -11.3373939222        3.1510603695       -0.9220715242
 O       -10.9706113285        2.1074576320       -0.4200629430
 C       -12.7681355863        3.6844155817       -0.5572587364
 C       -13.0537511275        3.0588092380        0.7650098865
 C       -12.1647692411        3.6807625950        1.8470948512
 O       -11.2745656478        4.5144091004        1.6653594549
 C       -12.3483037914        3.2051543102        3.3891002172
 C       -11.5657115600        1.7651672460        3.4081170053
 O       -10.6002067175        1.5255128966        2.7005390689
 C       -12.2685056967        0.6306101566        4.3171870502
 C       -11.3963099109       -0.6275865211        4.2923707077
 C       -11.8849565567       -1.5912212363        3.1443745855
 O       -12.5761250289       -1.0303339050        2.2852531354
 C       -11.4444558995       -3.0685661049        2.9571099852
 C       -10.1449032652       -2.8748346302        2.0964223594
 O        -9.0321064710       -2.7459796836        2.6157936931
 C       -10.3995880355       -2.8494868675        0.6047683701
 C        -9.1014315959       -2.5772738648       -0.2294722991
 C        -8.5624585393       -1.2004272340        0.1246584113
 O        -9.3756855090       -0.3043839734        0.3822665633
 C        -7.0505000385       -0.9091730296        0.1238463375
 C        -6.6855094618       -0.0943467709        1.4771912919
 O        -7.2467120318        0.9418882846        1.8120112323
 C        -5.4936325362       -0.6466878211        2.3128698300
 C        -6.1402022654       -2.1604959961       -0.0380638249
 C        -6.9442294892        0.0037167791       -1.1017058332
 C       -11.3059285529       -3.7385991709        4.3006680164
 C       -12.4784568490       -3.7758161297        2.0886145071
 C       -11.5728977602        4.1468677749        4.3810829398
 C       -13.7756091410        2.9777524564        3.7795780612
 C       -11.2825902217        4.6085982180       -2.8478335282
 C        -9.5696001808        2.7501075308       -2.5725105701
 C        -6.4168969596        8.8137147265        0.9527673045
 C        -7.9896742579       10.8300481741        0.2813403970
 C       -10.2098198628        7.7966574654       -5.6769172488
 C       -10.6953234767       10.1214438559       -6.4759039816
 H       -11.0570316746       11.5683737480       -3.7283253958
 H       -11.7489225214       10.5818341042       -2.4821669401
 H       -12.6261106580       10.8222813072       -4.0972245477
 H        -6.9079378701        8.8669141021       -4.3674054635
 H        -8.4216121924        8.2548509540       -3.4203870600
 H        -8.1729802542       10.8065895914       -2.3854081695
 H        -6.6611769004       10.7698286835       -3.0253775878
 H        -8.3004970721        6.3645330720        0.7066620309
 H        -7.4537582124        6.6625317521       -0.7546232046
 H        -9.5986968042        6.5405009657       -2.0450100113
 H       -10.3698767882        6.6636748502       -0.4674806174
 H       -13.4571149921        3.2387098127       -1.3153947882
 H       -12.6426322111        4.7756299791       -0.7018126980
 H       -12.8466521171        1.9714209787        0.7622279805
 H       -14.1158369115        3.0433530047        0.9095743957
 H       -13.3103902224        0.4190357512        4.0325827793
 H       -12.2015590380        1.0531951216        5.2616947119
 H       -11.4272031052       -1.2290173196        5.2398932489
 H       -10.3067108056       -0.3733616510        4.2355061906
 H       -11.1248073665       -2.0674831458        0.4568715627
 H       -10.8682770081       -3.7783305069        0.3089551664
 H        -9.1573396214       -2.5555245343       -1.3363808642
 H        -8.3539793680       -3.2604013094        0.2444061515
 H        -5.5841483724       -1.7024655508        2.6429778472
 H        -5.3331746022       -0.1802279018        3.1821425156
 H        -4.6021193373       -0.6314527088        1.6309843234
 H        -6.3810646420       -2.5483576069       -1.1370036000
 H        -6.1244047912       -2.9394247341        0.7070396834
 H        -5.1174215945       -1.8884756488       -0.0465630983
 H        -6.9583181585        1.1016802960       -0.8019519433
 H        -7.7654769337       -0.0788764544       -1.7703935384
 H        -5.9808089570       -0.0300145773       -1.6374619866
 H       -12.2132738157       -4.2992339921        4.5359793512
 H       -11.0028891833       -3.0507143256        5.0448406690
 H       -10.4062118512       -4.4371712437        4.1903149038
 H       -13.3394027719       -4.1903649673        2.7054100265
 H       -11.9439546301       -4.5800630397        1.5255456055
 H       -12.7658021495       -3.1033997849        1.2643457203
 H       -11.9516153947        5.1602451246        4.3563900744
 H       -10.4843275424        4.0853100906        4.1854705733
 H       -11.7532226741        3.7741364030        5.4315035328
 H       -14.2624926039        3.8945251180        3.7697670624
 H       -13.8662318092        2.7009491498        4.7922125958
 H       -14.3012842224        2.2262675171        3.0961739557
 H       -11.9084388292        3.9331298035       -3.3695907791
 H       -10.6704965781        5.2035051123       -3.5913807404
 H       -11.8560417677        5.3375909985       -2.2722576131
 H        -9.7387587422        1.7398621066       -2.2158561355
 H        -8.5086144902        2.7154110166       -2.5684756546
 H       -10.0038898497        2.7463925706       -3.5939476501
 H        -5.4546261915        9.3087558349        1.0234853498
 H        -6.2446408877        7.7894744315        0.6913310482
 H        -6.9115303363        8.7990956070        1.9197663606
 H        -7.6316455939       11.5771647974       -0.4443526315
 H        -7.6525554095       11.0701400956        1.2823916585
 H        -9.0708275764       10.8247121488        0.1612600698
 H        -9.8370200501        7.1898093752       -4.8379375421
 H        -9.4969125495        7.6742606400       -6.5752366723
 H       -11.1709857554        7.4411808411       -6.0268086442
 H        -9.8118393714       10.4923652661       -7.0175545536
 H       -11.0846299661       11.1128310212       -6.2372333838
 H       -11.4029911757        9.6411035704       -7.1310112851
 Na       -9.1884562063        2.1382572150        1.0002958831
