117

 C       -17.2156150102        2.3596459218        0.5865876065
 C       -15.8434713869        2.5221673261       -0.0265642120
 O       -14.8555717038        2.2637271582        0.7033788154
 C       -15.6970955017        2.7749441262       -1.6003053169
 C       -14.1792950681        2.5926574454       -1.9002179604
 O       -13.5302053573        3.5989121050       -2.0322698130
 C       -13.5480676140        1.1507938244       -1.8994900996
 C       -12.5156357805        1.1045726650       -0.7529966958
 C       -12.1025382892       -0.2316251597       -0.2489329715
 O       -12.7341693756       -1.2588218268       -0.4164023765
 C       -10.8846225816       -0.2655943585        0.7824080419
 C        -9.9238275806        0.9860306899        0.6552865390
 O        -9.2212081073        1.0594107082       -0.3602717849
 C        -9.7264034271        2.0290776510        1.7237384328
 C        -8.9552592877        1.4177658151        2.9619790826
 C        -9.3254229003        2.1251836257        4.3215279087
 O       -10.4879383032        2.2474577119        4.6889231832
 C        -8.1624945985        2.7331018165        5.1084148958
 C        -7.3194877982        3.8235612740        4.3356533724
 O        -6.1289626675        3.6976980598        4.3327158852
 C        -8.0856622781        5.0219051535        3.7392777985
 C        -7.0171793260        5.7001715003        2.9596674868
 C        -6.6042769437        4.8527548399        1.7636650951
 O        -7.3991830469        3.9693657775        1.3969776614
 C        -5.1900764637        5.0521679145        1.0631986913
 C        -5.6206420121        5.7809987372       -0.2101461067
 O        -6.2947027193        5.0837981691       -1.0199534100
 C        -5.4682182823        7.2978165598       -0.3760923478
 C        -6.3724107121        7.7579055385       -1.5515343004
 C        -7.7663711880        8.0860097362       -0.9626419234
 O        -7.9726183796        7.8100705626        0.2189331854
 C        -8.9252411604        8.6240385209       -1.8903693655
 C        -9.4251984539        7.3251054899       -2.6137111242
 O        -8.9624043761        6.8793272229       -3.6785843631
 C       -10.7724682977        6.6030216710       -2.0905352387
 C       -11.0343842762        5.4082131870       -3.0010773230
 C        -9.8902756691        4.4115440428       -2.8297896115
 O        -9.4054170093        4.3194296413       -1.7502320928
 C        -9.3334444119        3.4171123176       -4.0642003237
 C        -7.7585097947        3.2655882364       -3.9418636523
 O        -7.3353142792        2.7987119780       -2.9325977056
 C        -6.8159010706        3.8398390974       -4.9879753076
 C        -9.9039052244        2.0722540303       -3.6161370687
 C        -9.7667393353        3.8290982223       -5.5310289388
 C       -10.0273861037        9.1297134689       -0.9773312856
 C        -8.4958713733        9.5559449962       -2.9903337540
 C        -4.0727074168        5.8226448297        1.7984865167
 C        -4.6949734790        3.6072885385        0.8066629675
 C        -8.6688145885        3.3717992482        6.3811268396
 C        -7.1062940439        1.6242397197        5.3965659397
 C       -11.7300854491       -0.2537713346        2.0597687445
 C       -10.2240119207       -1.6275089248        0.4783750899
 C       -16.5019782941        1.6580056289       -2.3577325534
 C       -16.1850069056        4.2004587172       -1.9317446575
 H       -17.9875282647        2.3664689643       -0.2135211830
 H       -17.4425013144        3.2937845172        1.1599809989
 H       -17.3043225025        1.6030831673        1.2917196890
 H       -13.0092512319        0.9478950934       -2.8122656339
 H       -14.3589468130        0.4217494342       -1.7204437866
 H       -12.9164725056        1.6399408585        0.0970042176
 H       -11.6770345336        1.6845297905       -1.1130700829
 H       -10.6389500047        2.4341615429        2.1307332666
 H        -9.2816836136        2.9457633702        1.3565186655
 H        -7.8212054447        1.5537836443        2.6966507374
 H        -9.1932069448        0.3866705629        3.0870663242
 H        -8.5032625820        5.7557627023        4.4514768690
 H        -8.8545645499        4.8342919737        3.0260885038
 H        -6.1586420887        5.8466258899        3.6265374663
 H        -7.2832825377        6.6841948968        2.5960698319
 H        -4.4124457118        7.4823792776       -0.6409770958
 H        -5.8125870092        7.7850101255        0.5067403238
 H        -6.5240012756        6.9091992809       -2.2724906838
 H        -5.9320761943        8.6098719798       -2.1016326804
 H       -11.6782262801        7.1905506105       -2.0598640759
 H       -10.6078895485        6.1887282646       -1.1304810798
 H       -11.2648483845        5.6421251947       -4.0743329574
 H       -11.8683156680        4.8374699515       -2.6156260219
 H        -6.3656984712        3.0830033773       -5.6437372125
 H        -5.9673335246        4.2880975013       -4.5599933917
 H        -7.2378901898        4.5328931086       -5.6598144253
 H        -9.7432168654        1.7689987193       -2.6132128443
 H        -9.4537690349        1.2895966239       -4.1447054416
 H       -10.9363546564        2.0479986686       -3.7958398042
 H        -9.3684694557        3.2101116082       -6.3127725664
 H        -9.6150235394        4.9136162139       -5.8168528175
 H       -10.8372414123        3.6794394732       -5.6396127384
 H        -9.6932767875       10.1509478218       -0.6396905584
 H       -10.1791353945        8.5704475749       -0.0136277639
 H       -11.0430642738        9.2822378938       -1.4699059942
 H        -9.3167414311        9.7758163255       -3.6573360917
 H        -7.6984950009        9.0766867977       -3.6762833080
 H        -8.0023285616       10.4443167317       -2.5976475227
 H        -4.4702321053        6.5226129491        2.4850374636
 H        -3.4476819196        6.3712894503        1.0595137619
 H        -3.5445643399        5.0499287110        2.3503201551
 H        -3.9125857197        3.6692516303        0.0758241330
 H        -5.3962841312        2.8368136395        0.4036323347
 H        -4.2785629659        3.1553277206        1.7199981754
 H        -9.5934612478        3.8785276631        6.3854860144
 H        -8.0020584356        4.1409990649        6.7505689633
 H        -8.6690416520        2.6227154844        7.1483567527
 H        -6.6697427864        1.1831865580        4.4877218538
 H        -7.5321464420        0.8605059132        6.0001989125
 H        -6.2723691177        2.0857764800        5.9122639560
 H       -11.1569886516       -0.3849146871        3.0119737217
 H       -12.4614709402       -1.0408448589        2.0202437648
 H       -12.2852084434        0.6365424414        2.1799315170
 H        -9.5724159638       -1.4125450731       -0.3946119260
 H       -10.9725633379       -2.3122040928        0.1150619677
 H        -9.6670346646       -2.0766111288        1.2510418193
 H       -16.0287825854        1.3270591515       -3.3188596211
 H       -17.5351215173        2.0275359261       -2.5755702547
 H       -16.6688218872        0.8467502703       -1.6627379954
 H       -16.1112062718        4.3028519228       -2.9965720399
 H       -15.6371264954        5.0059844354       -1.4889453565
 H       -17.1727400215        4.4056326357       -1.6515444505
 Na       -7.6978609056        3.0019986005       -0.6086056034
