117

 C       -17.3204371120        2.4422134845        0.6007152321
 C       -15.8914269210        2.5044147969        0.0418578297
 O       -14.9463419112        2.3158196051        0.7095879817
 C       -15.6834873255        2.7997409146       -1.5288866629
 C       -14.1792725573        2.6620667921       -1.8909721529
 O       -13.5187462055        3.6620786649       -2.1493286664
 C       -13.5891982031        1.2321194624       -1.7278861973
 C       -12.4046134403        1.2096162414       -0.7074817216
 C       -12.1362105797       -0.1696839888       -0.1724068561
 O       -12.8184944920       -1.0400075258       -0.5832083335
 C       -10.8617082365       -0.3262797756        0.8329211462
 C        -9.9687973061        0.9143947723        0.7643009891
 O        -9.2440117927        0.9903776078       -0.2256440465
 C       -10.0445077965        1.9695621522        1.9439596997
 C        -9.0005266203        1.5426429807        3.0047023014
 C        -9.3924038546        2.1650022317        4.3761617476
 O       -10.5431154463        2.1231150785        4.7425239286
 C        -8.1888671985        2.8166165366        5.3066515881
 C        -7.3577343510        3.9754677472        4.4371317163
 O        -6.1693035974        3.7601857177        4.0553503646
 C        -8.0860646757        5.2541237329        3.8624647148
 C        -7.1037997382        5.8843799925        2.7592021719
 C        -6.5090500769        4.7698207356        1.8722105496
 O        -7.3058288910        3.9565193316        1.4215760443
 C        -5.1424387906        4.9093954595        1.0294893008
 C        -5.7148174949        5.6449971734       -0.3554384711
 O        -6.4461791537        5.0844607255       -1.0968342212
 C        -5.3204199406        7.0791791321       -0.5813813164
 C        -6.2858718891        7.8264700630       -1.5524657608
 C        -7.7241395828        8.1049241166       -1.0677462135
 O        -8.0497328067        8.0012296687        0.0843944483
 C        -8.8992551160        8.6176922522       -2.0715815481
 C        -9.5141859808        7.3105454470       -2.8745319683
 O        -8.8983835467        6.9866318682       -3.8444057310
 C       -10.5936020404        6.5076033338       -2.2923197591
 C       -10.9577119702        5.2050971125       -2.9874329798
 C        -9.7354913876        4.2134278004       -2.7840195866
 O        -9.3274275834        4.1752253615       -1.6050397413
 C        -9.2933857218        3.2334176575       -3.9642153592
 C        -7.7505051407        3.1940443392       -3.8947502660
 O        -7.1946174859        2.5962086575       -2.9405586328
 C        -6.9618383662        3.9886200985       -4.9175215714
 C        -9.9420219931        1.8848802870       -3.7170900373
 C        -9.8422037842        3.8153364188       -5.2841523793
 C       -10.0033082912        9.3253004492       -1.2181765437
 C        -8.2599437159        9.6534749408       -3.1172749821
 C        -4.0584883810        5.6677737105        1.8866303231
 C        -4.5351370646        3.5236921797        0.5786910673
 C        -8.8352893943        3.3672363670        6.5545082386
 C        -7.2810555427        1.6565559361        5.6176713284
 C       -11.6048465846       -0.4018297849        2.2558958800
 C        -9.9740833398       -1.6527575981        0.7317819850
 C       -16.5414153553        1.7574213177       -2.3038812216
 C       -16.1717600337        4.2261008078       -1.9306798348
 H       -18.1048751794        2.7066142136       -0.0658176843
 H       -17.4842100930        2.9689901417        1.5321696789
 H       -17.3574744875        1.3414401398        0.9117260355
 H       -13.1747910152        0.9475299075       -2.7305097803
 H       -14.3559877308        0.5702490193       -1.3420737177
 H       -12.5645210531        1.9713303471        0.0630601034
 H       -11.5132055459        1.5534215918       -1.2458180008
 H       -11.0162944927        2.0818237483        2.4684191963
 H        -9.7694636134        2.9771190327        1.6010307283
 H        -8.0596952263        1.8464058847        2.6851072518
 H        -9.0060882599        0.4029442917        3.1821097424
 H        -8.4061463617        5.9860717805        4.5825407716
 H        -8.9736389779        4.8780943394        3.2994080718
 H        -6.3224073765        6.4804909657        3.2433875087
 H        -7.5389812595        6.5525350273        1.9765662504
 H        -4.3994963477        7.1330588160       -1.1373120748
 H        -5.2787330547        7.5647028379        0.4337868682
 H        -6.3249365238        7.3563002051       -2.5307674012
 H        -5.8265753482        8.8223845722       -1.6892857381
 H       -11.4678855295        7.2137304503       -2.3422455905
 H       -10.3564713605        6.3388985271       -1.1943905459
 H       -11.0160983593        5.4269720307       -4.0160992322
 H       -11.8989652345        4.7272396728       -2.6568475094
 H        -7.0302077965        3.6698617914       -5.9372167673
 H        -5.8688124025        4.0144539493       -4.7666412023
 H        -7.3052372941        5.0646792635       -4.9567355291
 H        -9.4177973746        1.5279289539       -2.8636947356
 H        -9.7352826243        1.0752662875       -4.4837043862
 H       -11.0068874330        1.9134450103       -3.3973747587
 H        -9.6402588789        3.1211954195       -6.1246985397
 H        -9.3432258198        4.7009460383       -5.5255666954
 H       -10.9007303627        3.9813592235       -5.4006055048
 H        -9.6994683598       10.0202444123       -0.4714337575
 H       -10.5847888284        8.5908847653       -0.7536514994
 H       -10.6627905462        9.8005921968       -1.9349085238
 H        -8.9983936662        9.8247130635       -3.9263173009
 H        -7.3909315342        9.3596721622       -3.6060818357
 H        -8.0812508170       10.6198067257       -2.6364064622
 H        -4.4800796528        6.5930658869        2.2758768133
 H        -3.2344881496        5.9016851087        1.2208647408
 H        -3.7577384160        5.0054771708        2.6580530876
 H        -3.5112754571        3.5847418508        0.1053625722
 H        -5.1268914807        3.0235272351       -0.1910070942
 H        -4.6116729566        2.8119030484        1.4034117068
 H        -9.3826724272        4.2675945439        6.3681931294
 H        -8.1494769166        3.6316566952        7.3401333971
 H        -9.5420388370        2.6779022017        6.9556117106
 H        -6.8316490191        1.2136785703        4.7141342590
 H        -7.8516822324        0.8741285673        6.1429179609
 H        -6.5002626318        2.0158296920        6.2930002632
 H       -10.9536392592       -0.2449154065        3.0956169324
 H       -12.1861254438       -1.3548819323        2.3061482943
 H       -12.3897511665        0.3908120686        2.3777882722
 H        -9.3846590647       -1.7287823457       -0.1640225132
 H       -10.6357985526       -2.5333281149        0.8457767567
 H        -9.3339649141       -1.7091069416        1.6548412188
 H       -16.1577036987        1.7671254832       -3.3008086543
 H       -17.5707079195        2.0400452393       -2.3651075210
 H       -16.4184689076        0.7303138484       -1.8965623660
 H       -15.8903172280        4.5830087572       -2.9393940512
 H       -15.7646184749        4.9528786089       -1.1850830599
 H       -17.2592598426        4.4706520258       -1.7824410940
 Na       -7.7170717304        2.9798574169       -0.7791493557
