117

 C       -17.3275962020        2.5049346185        0.5434373315
 C       -15.9384668214        2.5257477045        0.0304951321
 O       -14.9838044972        2.3890545639        0.8019356942
 C       -15.7168265770        2.8405586263       -1.5057291766
 C       -14.2258973906        2.6551671615       -1.8223291343
 O       -13.5383942355        3.5643973143       -2.2249641377
 C       -13.5483998794        1.2882713076       -1.6349273034
 C       -12.2860739849        1.3529884328       -0.7504468575
 C       -11.9746333662       -0.1511464308       -0.2682546687
 O       -12.7093937773       -1.0645187925       -0.5807364058
 C       -10.9069023447       -0.3697540147        0.9923798936
 C       -10.0019986680        0.8788159276        0.9096510547
 O        -9.2621825383        1.1357795067       -0.0102605211
 C       -10.0493165428        1.9846485129        1.9204391428
 C        -8.9152671019        1.7116457292        2.9828027695
 C        -9.3262356912        2.3130053396        4.3684204969
 O       -10.4866277493        2.1380837734        4.7674084768
 C        -8.2466794082        2.9332145817        5.2721872126
 C        -7.4221932335        3.9029082142        4.3868679412
 O        -6.2592242327        3.6549931160        4.0622853247
 C        -8.0276762310        5.1929247411        3.9323643154
 C        -7.1999329776        5.7706396965        2.7894544389
 C        -6.6965476593        4.7954562409        1.7175143070
 O        -7.3534636276        3.7392908425        1.5038347221
 C        -5.2823412759        4.9336771602        0.9379523747
 C        -5.7200123604        5.6622820341       -0.3033489066
 O        -6.4036435215        4.9623792202       -1.0621461426
 C        -5.3206361691        7.1321563467       -0.7070743229
 C        -6.2640969093        7.8943546972       -1.6227505945
 C        -7.7538961819        8.1899971712       -1.0798499099
 O        -8.0835196850        7.9983744073        0.0778919310
 C        -8.8396161329        8.6521457463       -2.1622168420
 C        -9.3075292338        7.3935057898       -2.9291896013
 O        -8.7981188520        7.0210025184       -3.9575205914
 C       -10.6077425961        6.5238190901       -2.2946911079
 C       -10.8579111072        5.2225619870       -3.0496446187
 C        -9.7932140109        4.1519265999       -2.6862720305
 O        -9.4001623827        4.1195123615       -1.5866767814
 C        -9.3020575215        3.2031721153       -3.8536901793
 C        -7.7902285668        3.1415361118       -3.9122660462
 O        -7.1407377340        2.5348217317       -3.0692083624
 C        -7.0365572441        4.0235046708       -4.8523776135
 C        -9.8739250617        1.7674765153       -3.6149121167
 C        -9.7858598640        3.7608231898       -5.2644849086
 C        -9.9346969336        9.3473025612       -1.3624334687
 C        -8.0948777249        9.5878986432       -3.1480260420
 C        -4.0993578135        5.6802041644        1.7003242698
 C        -4.6299999660        3.5988179932        0.5251479602
 C        -8.8786186928        3.5460827871        6.5227835708
 C        -7.3333116572        1.6934881835        5.7240903376
 C       -11.6540566334       -0.6077892193        2.3507390555
 C       -10.0228363960       -1.6155183915        0.7652970132
 C       -16.5642782709        1.8020386558       -2.3573763840
 C       -16.2590799703        4.2827737845       -1.8234999813
 H       -18.0213899845        3.0765532562       -0.0570048711
 H       -17.4197465317        2.8619372159        1.5989469996
 H       -17.5887595524        1.4874629766        0.5999739870
 H       -13.2867295054        0.9749074764       -2.6494082804
 H       -14.1821925144        0.6234835673       -1.0920669742
 H       -12.5559560336        1.9545964595        0.1756649811
 H       -11.4476743789        1.9227546916       -1.2109026107
 H       -11.0123736347        2.1266890284        2.4702449307
 H        -9.7983929001        2.9061720260        1.3268870471
 H        -7.9477865043        2.0852192663        2.6219763527
 H        -8.8022135414        0.6849925174        3.1220529917
 H        -8.0709348419        5.9656784137        4.7228634281
 H        -9.0637393190        5.0159196479        3.5630446574
 H        -6.3576743403        6.3590098307        3.1888269388
 H        -7.7842914201        6.4935526507        2.2149213199
 H        -4.4520079756        7.1089937341       -1.3576719855
 H        -5.1623636601        7.6831698081        0.2424914164
 H        -6.3587390335        7.3736359097       -2.5500991577
 H        -5.7811346356        8.8203829475       -1.8327581351
 H       -11.5138963215        7.1977950197       -2.3968041609
 H       -10.4319017385        6.2780423973       -1.2486154232
 H       -11.0037784436        5.3384118492       -4.1493392393
 H       -11.7773851333        4.7697085713       -2.6697920820
 H        -7.4099222923        4.0842675602       -5.8989505540
 H        -6.0012135247        3.7557109311       -5.0171111879
 H        -7.0749664296        5.1047597035       -4.5298542655
 H        -9.2714837187        1.3018148050       -2.8109303158
 H        -9.6970015671        1.0628709885       -4.4988256833
 H       -10.9580658042        1.7227841608       -3.2217562489
 H        -9.2347296926        3.3852071327       -6.1291109202
 H        -9.5304966813        4.8366490641       -5.2623216869
 H       -10.7799538059        3.6429098893       -5.5456624911
 H        -9.5201438747        9.9490069668       -0.5964871339
 H       -10.4721701370        8.5553564777       -0.9174988877
 H       -10.6523539239        9.9384019433       -1.9901613677
 H        -8.7938248638        9.9146247805       -3.9036030003
 H        -7.3424402274        8.9852447314       -3.7160918690
 H        -7.6738701154       10.4591307668       -2.7491474985
 H        -4.2052605742        6.7331112370        1.6538190256
 H        -3.1379271476        5.3772295126        1.1370247877
 H        -4.0580073313        5.2912132698        2.7083847606
 H        -3.6041393008        3.7434388996        0.2084703748
 H        -5.0528671921        3.1017701061       -0.3522466742
 H        -4.7751675724        2.8620774187        1.2841375657
 H        -9.1585878554        4.6110870733        6.5204028017
 H        -8.2088135847        3.4292430004        7.4404390879
 H        -9.8401028753        3.0155348884        6.7489988575
 H        -6.7650479958        1.2736119309        4.8196277529
 H        -7.8909577851        0.9033277290        6.1600548400
 H        -6.6479249045        2.0798862338        6.4703706729
 H       -10.9035439245       -0.5377818294        3.1806523056
 H       -12.2017380540       -1.5835715453        2.2978094716
 H       -12.3815629865        0.1522616624        2.6038784099
 H        -9.6536307158       -1.5939924919       -0.3027624368
 H       -10.5443542345       -2.5539232996        0.9863810674
 H        -9.1997830015       -1.6288996605        1.4565695990
 H       -16.4372654121        2.1101927574       -3.4031093236
 H       -17.6023772831        1.7908291877       -2.1550356079
 H       -16.0636618582        0.8462859953       -2.2791771595
 H       -16.1161868256        4.7057137313       -2.8562373290
 H       -15.8289098615        5.0125816232       -1.0842149065
 H       -17.3164081058        4.4378769756       -1.5896200110
 Na       -7.7083975267        2.8004256243       -0.7789961002
