117

 C       -17.3999962863        2.5289513222        0.5767461093
 C       -15.9775392920        2.6104750940        0.0725362587
 O       -15.1150908190        2.5060069440        0.8759527181
 C       -15.7379281501        2.8645247416       -1.4844923933
 C       -14.2339172383        2.6601704310       -1.8133550892
 O       -13.6010782769        3.5695224791       -2.3250405479
 C       -13.6198560648        1.2934864782       -1.4392147529
 C       -12.3485995976        1.2863186992       -0.5711404367
 C       -11.9781110913       -0.1375119675       -0.1690318611
 O       -12.3582850800       -1.1606791828       -0.6251505445
 C       -10.9177336817       -0.2983178996        1.0189318347
 C       -10.0021935362        0.9213549882        1.0185287377
 O        -9.1530880727        1.0694210283        0.1066185777
 C       -10.0814858672        1.9639538129        2.0690196974
 C        -8.9897617213        1.8184502168        3.1072784025
 C        -9.4029106636        2.3688668746        4.5041708419
 O       -10.5443291787        2.3174252432        4.8851474157
 C        -8.2093256036        2.9952618199        5.4517831029
 C        -7.2834111444        3.8065162422        4.4948859989
 O        -6.1861977946        3.4405431127        4.0405536268
 C        -7.9099934341        5.0795461578        3.8543549708
 C        -7.1453709031        5.7270137827        2.6975176120
 C        -6.7269618920        4.6993740584        1.5966655531
 O        -7.4233928079        3.7822797741        1.3472579644
 C        -5.4381206914        4.9278412235        0.7954427669
 C        -5.9223620670        5.6240191742       -0.5414305161
 O        -6.5769491663        5.0550045847       -1.3535679694
 C        -5.4619751404        7.0332753746       -0.6793559637
 C        -6.2857315791        7.7093627296       -1.7618259740
 C        -7.6502346314        8.1032246815       -1.1917663539
 O        -7.9357866989        7.8720868398       -0.0421330607
 C        -8.6735365033        8.6694305420       -2.2701198312
 C        -9.2593051577        7.3626420150       -3.0195877642
 O        -8.6411811300        6.9282671809       -3.9528965663
 C       -10.3940691085        6.6477547713       -2.3557685633
 C       -10.8004525493        5.3469575719       -3.0319344751
 C        -9.7464317884        4.2113865499       -2.7553734677
 O        -9.5710005921        3.9324725172       -1.5318143806
 C        -9.2731521053        3.1802630068       -3.9342681711
 C        -7.7207615922        3.1657176698       -3.8993716416
 O        -7.1360752789        2.4708585330       -3.0514158635
 C        -6.8851745284        4.1564189059       -4.6959260571
 C        -9.7066866506        1.8084673488       -3.4507176045
 C        -9.9513086501        3.3792721266       -5.2904867949
 C        -9.8411939800        9.5162761698       -1.6052544246
 C        -7.9482184619        9.5889161146       -3.3412392811
 C        -4.5103154462        5.7798922046        1.7056009024
 C        -4.8203973398        3.4780947629        0.5638429766
 C        -8.9089051778        3.9088594407        6.5422098302
 C        -7.4043224928        1.8373416043        6.0275391964
 C       -11.6971860372       -0.5475960912        2.3695468259
 C       -10.0171220360       -1.4727311629        0.4940733495
 C       -16.5384176571        1.8863114791       -2.4200424279
 C       -16.1388119163        4.3838660059       -1.6902124217
 H       -17.8834995276        3.4745809721        0.4318021248
 H       -17.3309119766        2.4051364376        1.6200625167
 H       -18.0646914632        1.7129892233        0.1515167493
 H       -13.4193095151        0.8022141679       -2.3877058940
 H       -14.3642808678        0.7547208017       -0.8292632974
 H       -12.4747635702        1.8759843873        0.3084464428
 H       -11.5108836595        1.7455054421       -1.0947033319
 H       -11.0844020695        1.9917113665        2.4990740467
 H        -9.8415725608        2.8530017821        1.5116664072
 H        -8.0905982913        2.2829999294        2.7503141858
 H        -8.6678602535        0.7025173227        3.2132197569
 H        -8.1315152921        5.8755722707        4.5665711363
 H        -8.8786519339        4.7311664686        3.4554725339
 H        -6.3438246186        6.3428112271        3.0800975178
 H        -7.7885230153        6.4562193632        2.1690996571
 H        -4.3943144629        7.0025723213       -0.9296255716
 H        -5.6379468981        7.4922390687        0.2757961480
 H        -6.5061066785        7.0305697790       -2.6153093379
 H        -5.8033803630        8.6348729671       -2.1749464086
 H       -11.1987523278        7.3197725427       -2.4274363209
 H       -10.0735808352        6.6290884126       -1.2936946314
 H       -10.8381878467        5.4870067711       -4.0904748507
 H       -11.7969130957        4.9824158869       -2.6871305892
 H        -7.3142102946        4.6174815894       -5.5413818318
 H        -5.9594737358        3.6931906581       -5.0506722429
 H        -6.5820957714        4.9694214136       -4.0721663410
 H        -9.3698893625        1.6933563022       -2.4538235720
 H        -9.3087864112        0.9963651049       -4.0163176558
 H       -10.7493147681        1.6839059266       -3.3990448774
 H        -9.6917902946        2.5949879595       -6.0206863463
 H        -9.6127008382        4.2728286946       -5.7750482335
 H       -11.0799556072        3.4563350496       -5.1668675007
 H        -9.4732789458       10.5848623017       -1.4264749912
 H       -10.1584714994        9.0378297506       -0.6290180415
 H       -10.7116848254        9.5401960267       -2.2931919108
 H        -8.5497068193       10.3909092367       -3.8412275401
 H        -7.4297299755        8.9592533795       -4.0143479627
 H        -7.2000164259       10.2421403965       -2.7876449032
 H        -4.9324178736        6.8159158746        1.8430439766
 H        -3.5652837049        5.8292910083        1.2607429893
 H        -4.4331425282        5.2303680018        2.6515559249
 H        -3.9253586083        3.5260538220       -0.0468017863
 H        -5.4388694052        2.8214486956       -0.0075761785
 H        -4.6978048481        2.9139991705        1.4736374228
 H        -8.9096333834        4.9721984684        6.2119004894
 H        -8.4813303934        3.9127159686        7.5358985968
 H        -9.9914477459        3.7363778531        6.6325680759
 H        -7.0648916262        1.2933043973        5.2072465392
 H        -8.0753223844        1.1492545503        6.5851399183
 H        -6.6208451993        2.1573491218        6.7067113448
 H       -11.0536731499       -0.8058715548        3.1722278187
 H       -12.4462774535       -1.2979459986        2.2158247185
 H       -12.1976432518        0.3864072624        2.7041723913
 H        -9.5198211617       -1.2512368891       -0.3923051764
 H       -10.6188569313       -2.3603577179        0.4027113756
 H        -9.3292666833       -1.7446829850        1.3097175250
 H       -16.8552850765        2.3009676382       -3.3627703915
 H       -17.4730723159        1.6879914255       -1.8606482151
 H       -15.8946624205        1.0078109300       -2.6197596792
 H       -15.8625388843        4.6721493394       -2.6671441359
 H       -15.6040456949        5.0371235630       -1.0589272697
 H       -17.1741744732        4.6731903824       -1.6549469343
 Na       -7.6849093875        2.5670246368       -0.7086230014
