117

 C       -11.8185144923       10.6415795109       -3.5721561067
 C       -11.0455042119        9.3641277597       -3.9367053823
 O       -11.0972468425        8.3132893362       -3.2459067346
 C       -10.1374944461        9.3208247630       -5.2711931738
 C        -8.7900263972        9.8637673620       -4.8676726830
 O        -8.3641205942       10.9390294588       -5.2674072859
 C        -7.9275433244        9.0706261235       -3.9092257677
 C        -7.4077993937       10.0632941041       -2.8327726581
 C        -6.9409253483        9.1785267545       -1.5441092843
 O        -6.2213814258        8.2647196665       -1.8615388946
 C        -7.5106246690        9.2487342392       -0.0995683493
 C        -8.7372619598        8.2737266429       -0.0757507246
 O        -9.8948782949        8.6917017549        0.1601385846
 C        -8.4236608245        6.8088307537       -0.2181070863
 C        -9.5238700019        6.1084141276       -1.0419263609
 C        -9.4450284584        4.6340344574       -0.9308654022
 O        -8.6885564471        4.0747949605       -0.1816463299
 C       -10.4431634183        3.8370172087       -1.8891052746
 C       -11.3371149211        3.1407999275       -0.8586303104
 O       -11.0485910464        2.1127481689       -0.3364656100
 C       -12.8094949696        3.5938229179       -0.5722439867
 C       -13.1047624786        3.1562382490        0.9090891315
 C       -12.1149223202        3.8222608076        1.8936825657
 O       -11.1923954327        4.4297155123        1.4598000713
 C       -12.3003989616        3.3248365824        3.4204925598
 C       -11.6008180263        1.9007105160        3.4480093375
 O       -10.6897689616        1.6085885920        2.6912894536
 C       -12.0318862583        0.7619928149        4.3811746084
 C       -11.3218621262       -0.5955782328        4.3195120391
 C       -11.8383397187       -1.4202949799        3.1005682609
 O       -12.4787553081       -1.0021175810        2.1948532603
 C       -11.4090883186       -3.0369697443        3.0143723185
 C       -10.1694036616       -2.9166579326        2.1262397552
 O        -9.0347608936       -2.8191671968        2.6507997064
 C       -10.4099355375       -2.8275060097        0.6273934643
 C        -9.0700433994       -2.6164864179       -0.0715573061
 C        -8.5747000712       -1.1210211590        0.3376563862
 O        -9.4071201041       -0.2423285349        0.4005881258
 C        -7.0620519407       -0.8823432588        0.2273207983
 C        -6.6202680281       -0.1221134753        1.4402603545
 O        -7.2064611703        0.8720410863        1.7547183869
 C        -5.3372340530       -0.4977608128        2.2015823844
 C        -6.2374523099       -2.1922770560       -0.0413132371
 C        -6.8926492144       -0.0244658214       -0.9865443029
 C       -11.0396397776       -3.6469550330        4.4016482037
 C       -12.5062310864       -3.8750364097        2.1912497119
 C       -11.4493855353        4.1935955488        4.3470073093
 C       -13.7935924313        3.1624415863        3.8566880420
 C       -11.2303841345        4.6604975437       -2.9037348624
 C        -9.4999496721        2.8172885131       -2.5888562862
 C        -6.3679680599        8.9129458983        0.9238936854
 C        -8.0758725628       10.7009989343        0.2558518817
 C       -10.1058132207        7.7877773423       -5.7400969853
 C       -10.7258398353       10.1351316027       -6.4947216623
 H       -11.2233025946       11.5710515686       -3.4264931766
 H       -12.2994883414       10.4412501119       -2.6362592953
 H       -12.4792499810       10.8061197529       -4.3316108249
 H        -7.1195743388        8.7784647111       -4.5700812162
 H        -8.4943272001        8.2292283611       -3.4404561511
 H        -8.1533599043       10.7753537996       -2.6351530738
 H        -6.5917832519       10.6895701766       -3.2338336511
 H        -8.2790866984        6.2812374913        0.6833781078
 H        -7.5374775037        6.6608004501       -0.8493097213
 H        -9.5506432734        6.3818498689       -2.0795413889
 H       -10.4298056379        6.4259810241       -0.6611931330
 H       -13.4780147811        3.0772011654       -1.3744803333
 H       -12.7827570476        4.6577299095       -0.7463456804
 H       -13.0340218447        2.1125898334        1.1505944678
 H       -14.1980596578        3.3613196038        0.9817079809
 H       -13.0619319689        0.6027181125        4.1317002574
 H       -11.9053669591        1.1493854036        5.3848245025
 H       -11.4324123959       -1.2325133852        5.2245557689
 H       -10.2381542584       -0.4853759448        4.3345825952
 H       -10.9913756472       -1.8992930903        0.4583929919
 H       -10.9739253395       -3.6449299629        0.2272918420
 H        -9.1453428517       -2.4967940882       -1.2031533382
 H        -8.4361014489       -3.3958127514        0.3126814816
 H        -5.3690970169       -1.4706485589        2.6752013247
 H        -5.2041452942        0.1344587812        3.1023163672
 H        -4.4970054076       -0.4977738382        1.5473697348
 H        -6.3299030869       -2.3670423979       -1.1024247395
 H        -6.3008610778       -3.1160466774        0.5631824051
 H        -5.1674450521       -1.9388803592        0.0990193390
 H        -7.3759329225        0.9141628158       -0.9313185839
 H        -7.3299523448       -0.5481635462       -1.8135375721
 H        -5.8752158328        0.2547578685       -1.1787117998
 H       -12.0075620181       -4.1482924209        4.6914857019
 H       -10.6588293627       -2.8624382260        5.1446030829
 H       -10.2315466471       -4.3870064375        4.3533129145
 H       -13.3541143784       -4.2265097985        2.7789872988
 H       -11.9122719321       -4.6949367671        1.7128190293
 H       -12.7410908098       -3.2883754151        1.2774499506
 H       -11.8977103058        5.1605069221        4.2036181732
 H       -10.3799747711        4.1672610906        4.1588992481
 H       -11.6217452878        3.9502031069        5.4190871900
 H       -14.1792747792        4.1841846600        4.1207494108
 H       -13.9269351569        2.6285036383        4.7964637501
 H       -14.3940557815        2.7530442790        3.0283543197
 H       -12.0451602313        4.0025360026       -3.3480955426
 H       -10.6335447602        5.0001940877       -3.6702876525
 H       -11.6882699210        5.5473684551       -2.4554059815
 H        -9.4040560258        1.8258157086       -2.1693754167
 H        -8.4685127650        3.0840672462       -2.5874944161
 H        -9.8982542900        2.6905443600       -3.5860237580
 H        -5.5672013651        9.6459064516        0.8442986444
 H        -5.9580731495        7.9630975224        0.6665699120
 H        -6.7344871693        8.8750569782        1.9354841523
 H        -7.4428914675       11.4984568515       -0.1728891160
 H        -8.1021156831       10.8264865549        1.3295507734
 H        -9.0359723859       10.8413836981       -0.2850464222
 H        -9.6728306304        7.1675233638       -4.9571591182
 H        -9.5208900101        7.6785835597       -6.6303771550
 H       -11.1394970259        7.4142380303       -6.0519317131
 H        -9.9249487683       10.7302447152       -6.9753542602
 H       -11.3970743484       10.9606581504       -6.3433464917
 H       -11.2025938874        9.4738600557       -7.1354486281
 Na       -9.1412304435        2.1183749728        0.9765005599
