117

 C       -17.4155345529        3.3468859437        0.6247964255
 C       -15.9653020136        2.8829317495        0.2666903623
 O       -15.2872888367        2.4445350017        1.1428123072
 C       -15.4952268145        3.1336226735       -1.2798909503
 C       -14.0112103728        2.5910596728       -1.4309736284
 O       -13.1004123081        3.3055012889       -1.8331488619
 C       -13.7649006214        1.1518299031       -1.0697083817
 C       -12.6902953820        1.1562630952        0.0167005343
 C       -11.7534641202       -0.0789788303       -0.0770296050
 O       -11.5481470450       -0.4362610449       -1.1963045543
 C       -10.8144444996       -0.5077257037        1.1948996812
 C        -9.9471855833        0.8503585838        1.3009819743
 O        -9.0752094156        1.0696725397        0.4720801471
 C       -10.3696934326        1.9306485203        2.3225663276
 C        -9.3005021823        1.9425821797        3.5109738026
 C        -9.5937573516        2.9685166223        4.6394951206
 O       -10.7145876467        3.4692388201        4.8197806536
 C        -8.4182055462        3.3112383795        5.5296646814
 C        -7.4804928047        3.9357356335        4.5634657465
 O        -6.6126357726        3.2984341502        3.9435040070
 C        -7.8053965838        5.3808892595        4.0770898930
 C        -6.6999849570        5.7541855663        3.1135659527
 C        -6.6863841878        4.9054646609        1.8101639487
 O        -7.6299285124        4.2118856874        1.5300464021
 C        -5.4243748110        4.8361736270        0.9604240769
 C        -5.9524856698        5.4227461014       -0.5436486668
 O        -7.0070457383        5.0116890095       -0.9174791850
 C        -5.1753594131        6.5162652739       -1.2688892894
 C        -6.0014746434        7.0626066227       -2.4593143821
 C        -7.3349878315        7.7546172776       -1.9298972429
 O        -7.5566191272        7.9155297599       -0.7671387762
 C        -8.3382731981        8.2653235432       -2.9491842739
 C        -8.9644518656        7.0158863289       -3.5371610915
 O        -8.3537801484        6.2212687693       -4.2067625372
 C       -10.4454743035        6.5894191054       -3.1307056510
 C       -10.9161918016        5.2785316084       -3.6501148691
 C       -10.0697360772        4.1398107345       -3.1015415658
 O        -9.6373922199        4.2271373839       -1.9470097096
 C        -9.6010118033        2.8960814663       -3.8792735762
 C        -7.9355127397        2.8743492090       -3.6802410255
 O        -7.3751661289        2.5185064198       -2.5903399044
 C        -7.0186643503        3.1349320396       -4.9029931929
 C       -10.1795085533        1.6306534116       -3.1709862908
 C        -9.9490936748        2.8451788735       -5.3596705938
 C        -9.3947818196        9.1959819990       -2.2750607688
 C        -7.7259336193        9.2227650115       -3.9737995379
 C        -4.2887302002        5.6259484385        1.5360346072
 C        -5.1516526591        3.3281750896        0.8142276601
 C        -8.8218839929        4.3604603066        6.6405031685
 C        -7.9041910326        1.9691599574        6.2340796498
 C       -11.7066000388       -0.7019401878        2.4873832373
 C        -9.9385936931       -1.6594004877        0.8999700367
 C       -16.2767594646        2.3665630542       -2.4541571807
 C       -15.5497260645        4.6963002564       -1.5077480924
 H       -17.5817754538        4.4106275342        0.3485407101
 H       -17.6465494191        3.1809769273        1.6210560996
 H       -18.1670879490        2.8244068865        0.0194082602
 H       -13.4190210011        0.5699938531       -1.9456645813
 H       -14.6812343883        0.5976087902       -0.7742732671
 H       -13.1177795417        1.3207751402        1.0112054001
 H       -12.0787958971        2.0070920893       -0.1993188309
 H       -11.4111296478        1.9190939356        2.6453090137
 H       -10.3856595266        2.8705539754        1.7808189043
 H        -8.2199517754        2.0514461133        3.1174687859
 H        -9.3838024070        0.9684184715        4.0284260950
 H        -7.9125135527        5.9774176966        4.9615632274
 H        -8.7726675138        5.2829171249        3.6432461532
 H        -5.7332063022        5.6381288422        3.6536840929
 H        -6.8981011881        6.8018268105        2.9293958663
 H        -4.3242065587        5.9310292093       -1.6460020226
 H        -4.6943420956        7.2525074414       -0.6600427291
 H        -6.3240280280        6.2794332434       -3.2170431453
 H        -5.4156694403        7.8311835600       -2.9923226064
 H       -11.0705840022        7.4018724210       -3.5265785200
 H       -10.5110644848        6.7372620034       -2.0813012215
 H       -10.6797053557        5.1690465559       -4.7276738659
 H       -11.9478114698        5.2081828253       -3.4613886403
 H        -6.9845685229        2.1835746651       -5.4478519119
 H        -5.9855932001        3.4808910870       -4.6773799001
 H        -7.3935967493        3.7968594443       -5.6417241435
 H       -10.0929746775        1.6969291989       -2.1449361631
 H        -9.5995142595        0.7687891234       -3.4702445170
 H       -11.2140902968        1.5555804659       -3.4354407806
 H        -9.5450002876        1.9491783479       -5.7850112667
 H        -9.5210345563        3.7118819170       -5.8830141310
 H       -11.0579428436        2.8484376437       -5.5121157716
 H        -8.8538489917       10.1381898668       -1.9567735482
 H        -9.9547218760        8.6789165794       -1.4353860872
 H        -9.9564446819        9.4345493993       -3.1596057783
 H        -8.4138906039        9.2615573510       -4.8174345160
 H        -6.7918672815        8.8487683753       -4.3642329807
 H        -7.5178090678       10.2046359843       -3.4609653189
 H        -4.5594133013        6.7160404116        1.6113600881
 H        -3.4258303873        5.5545668597        0.9303517889
 H        -3.9882479406        5.3463699931        2.5884303416
 H        -4.4618205005        3.0302984497        0.0754452441
 H        -6.0091304366        2.7307302582        0.6206601728
 H        -4.6823523066        2.8985332186        1.6939448054
 H        -8.5391078580        3.9189910228        7.6603497284
 H        -9.9000829270        4.5977794753        6.6349739713
 H        -8.1448077950        5.2513623031        6.4899376490
 H        -7.7276873146        1.2124766106        5.5326861865
 H        -8.7025382636        1.6274776765        6.9172402992
 H        -6.9198041856        2.1116074609        6.7101802000
 H       -11.0913415139       -0.4905309187        3.3777106082
 H       -12.0313248168       -1.7069620968        2.4500500240
 H       -12.6100460869       -0.1019689873        2.3878110336
 H        -9.0549207831       -1.2879236459        0.3736218925
 H       -10.3826346456       -2.4185710173        0.2507783032
 H        -9.5266941935       -2.1210995657        1.7937627855
 H       -15.8027897442        2.7452752740       -3.3533300931
 H       -17.3844201049        2.4654068774       -2.4602631858
 H       -16.1276532441        1.3267409674       -2.3699333135
 H       -14.9876406215        5.0376772519       -2.3789267329
 H       -15.2397102353        5.3299318046       -0.7055961002
 H       -16.5438294518        5.0857101743       -1.6744601781
 Na       -8.3850940512        3.1511872324       -0.3079230512
