117

 C       -17.3024547774        3.5070875435        0.5426676110
 C       -15.9710552629        2.9553344153        0.1261129051
 O       -15.2842231956        2.2449394331        0.8799928815
 C       -15.4548690845        3.2633754112       -1.2987658409
 C       -13.9897857548        2.7447009920       -1.4227809622
 O       -13.1067207583        3.5248648299       -1.6842395248
 C       -13.6659215144        1.2109526898       -1.1239960681
 C       -12.7053070290        1.0150368334        0.0953840534
 C       -11.6818951641       -0.0586333122       -0.0783032357
 O       -11.5916032468       -0.7888063653       -1.0298860278
 C       -10.7277554853       -0.3123938079        1.1851875310
 C        -9.9591109261        1.0069956811        1.3512002047
 O        -8.9589678941        1.1837043005        0.6722898229
 C       -10.3375967802        2.0941224304        2.2910286256
 C        -9.4064285184        2.0825526853        3.4206850125
 C        -9.6708442695        3.0756639394        4.5237358840
 O       -10.6925899281        3.6445748047        4.6319050686
 C        -8.5125574444        3.3369733002        5.5867441303
 C        -7.4224471391        4.0177676628        4.6502167276
 O        -6.5891081360        3.3413408597        4.1723291495
 C        -7.5815424978        5.5176669442        4.2882059221
 C        -6.6027289756        5.9723580491        3.1677083492
 C        -6.6731901311        5.0122699161        2.0036339627
 O        -7.7155598062        4.3982222574        1.7884496837
 C        -5.4616642253        4.8865254882        0.9211053757
 C        -6.0600593042        5.2593447658       -0.4385090293
 O        -7.1088655817        4.8239237353       -0.8734336082
 C        -5.2665885173        6.3516939516       -1.3338204788
 C        -6.0563509731        6.9867100183       -2.4224954482
 C        -7.2930410573        7.7444397202       -1.9419482664
 O        -7.5324070296        7.9481799740       -0.7554100172
 C        -8.2442487203        8.2737916156       -3.0373441533
 C        -9.0022306608        6.9481241731       -3.5565882321
 O        -8.2793224437        6.0977836966       -4.0688717361
 C       -10.4721313724        6.5949538269       -3.3296196776
 C       -10.7461693045        5.2134281156       -3.8696240554
 C       -10.0437105856        4.0727626768       -3.0378899969
 O        -9.9628628169        4.1966128255       -1.8654774616
 C        -9.6218777459        2.8051399173       -3.9146364118
 C        -8.0026050003        2.6500439048       -3.6356218363
 O        -7.6429814821        2.4908772743       -2.5522002886
 C        -7.0549815741        2.5825942592       -4.8778259438
 C       -10.2572980051        1.6191016821       -3.1719345487
 C       -10.0598413092        2.8278796664       -5.3825260487
 C        -9.3205735194        9.1919794757       -2.3689018814
 C        -7.5276157949        8.9822122765       -4.1825762816
 C        -4.1499345920        5.6436231052        1.2213256733
 C        -5.0104465769        3.3760727399        0.7526792159
 C        -9.0166310337        4.1965629052        6.8389314863
 C        -7.8276031286        2.0497060208        6.1610087521
 C       -11.6037177711       -0.7385344012        2.4450856501
 C        -9.8651047373       -1.4793387993        0.7901401898
 C       -16.5018064343        2.4889812163       -2.2113204975
 C       -15.4152073738        4.7470717768       -1.6219770416
 H       -17.4206219103        4.5309561423        0.2207320304
 H       -17.4461237173        3.4428943815        1.6877372472
 H       -18.1415398252        2.9462936673        0.1420829190
 H       -13.2473411216        0.6843879367       -2.0050387082
 H       -14.5774586413        0.6725175521       -0.9017854769
 H       -13.2612218554        0.7652612799        0.9889012705
 H       -12.1801272513        1.9565058581        0.3433046461
 H       -11.3880409604        2.0601202741        2.4891513661
 H       -10.3426664223        3.0697936387        1.7763872499
 H        -8.4532171582        2.3164072988        3.0002465336
 H        -9.3652294266        1.1113798180        3.8682075464
 H        -7.4860277988        5.9912206202        5.2764627679
 H        -8.6746818864        5.5859316753        4.0654755639
 H        -5.5993232375        6.0636448675        3.5533228766
 H        -7.0361853087        6.9541801477        2.8996569299
 H        -4.2547450742        6.0401254485       -1.6374670892
 H        -5.0677279064        7.1874732840       -0.5898903462
 H        -6.4297988517        6.2855723702       -3.1377084210
 H        -5.4873150206        7.7423192072       -2.9892494720
 H       -11.0642557185        7.4360389295       -3.7484106305
 H       -10.6377494844        6.7248284067       -2.2150206724
 H       -10.6168138614        5.0056203265       -4.9172423803
 H       -11.8224959754        5.0064743444       -3.6020996433
 H        -6.7355381389        1.5988563398       -5.1800652586
 H        -6.2109579674        3.1580847117       -4.6594550001
 H        -7.4651873875        3.0488952433       -5.7890022629
 H        -9.7698895595        1.4509933570       -2.1416975666
 H       -10.0232799040        0.7765401637       -3.7545186195
 H       -11.3067279835        1.8003246076       -3.1483491295
 H        -9.7801131136        1.8161570437       -5.7881678842
 H        -9.5779560185        3.5981786545       -6.0121881906
 H       -11.1274910903        2.8891123130       -5.4236127476
 H        -8.8575047353        9.9677242882       -1.8592608747
 H        -9.7633077992        8.5391048107       -1.6709240073
 H       -10.0092829662        9.5191032442       -3.1460394731
 H        -8.3113123621        9.2379695660       -4.9082531375
 H        -6.8651048919        8.2525752030       -4.7449973738
 H        -6.9603594241        9.8157366950       -3.8376004119
 H        -4.2400985958        6.6347749491        1.5195887134
 H        -3.3903415126        5.6061711543        0.3956516176
 H        -3.7309139725        5.1891853336        2.0651222150
 H        -4.0989694794        3.2356639824        0.1282488841
 H        -5.6806039896        2.5993153467        0.3211400096
 H        -4.6932362686        2.9459142262        1.7046149240
 H        -9.5460216653        3.6657861770        7.5436297714
 H        -9.6479414903        4.9394389158        6.4045451893
 H        -8.1636278750        4.5884310590        7.2822582272
 H        -7.3771935678        1.4023939108        5.3369134847
 H        -8.4253205091        1.4679890793        6.8157175965
 H        -6.9606069586        2.4280497428        6.6548355037
 H       -10.8726493592       -1.0644850012        3.1492880521
 H       -12.2257420591       -1.5932939810        2.1267114609
 H       -12.1537062444        0.0763357873        2.8485717815
 H        -9.2757644890       -1.2403526260       -0.0965789545
 H       -10.4661977908       -2.3181293769        0.4986630192
 H        -9.1832966379       -1.8084365482        1.5444553615
 H       -16.1623500637        2.2284487967       -3.2332812725
 H       -17.3704090789        3.1182013484       -2.2963235237
 H       -16.8996724555        1.5990847576       -1.6369792473
 H       -15.0138879237        5.0458831727       -2.5554965889
 H       -14.8865317636        5.3311624863       -0.8844013619
 H       -16.3667114021        5.2010033445       -1.5738139713
 Na       -8.4379277711        3.1081349868       -0.4040668176
