117

 C       -17.2667076026        3.7208105464        0.6764587028
 C       -16.0052020196        3.0327253598        0.1764836220
 O       -15.4330771140        2.2001653980        0.8448984737
 C       -15.4231108076        3.3196148570       -1.2663453301
 C       -13.9290169593        2.7287880108       -1.4097205448
 O       -13.0515723348        3.5426664671       -1.6706733497
 C       -13.6327976771        1.2442358558       -1.2837794286
 C       -12.7956018917        1.0083332085       -0.0341456332
 C       -11.7947796153       -0.0785420820       -0.1020305068
 O       -11.8470214956       -0.9141173266       -0.9806001156
 C       -10.7400076531       -0.2210525569        1.0981971246
 C        -9.9424842532        0.9848795378        1.2855075794
 O        -8.9221030611        1.1503419718        0.6080633280
 C       -10.3557207083        2.0789019626        2.2756273539
 C        -9.4035007406        1.9603044476        3.5139331247
 C        -9.6516912561        3.1908701864        4.5033531100
 O       -10.6694581046        3.8635254333        4.5580921187
 C        -8.5172787463        3.4055767150        5.6114815421
 C        -7.2899895858        4.1517013526        4.8516845717
 O        -6.2396322979        3.6105648802        4.4637211242
 C        -7.2664543355        5.7317967098        4.4023322425
 C        -6.4305204211        5.8652630438        3.1743377437
 C        -6.7317879254        4.9445524593        1.9971471843
 O        -7.7714313166        4.3984800509        1.7049880518
 C        -5.5413148614        4.9040228712        0.9542621934
 C        -5.9807788766        5.4007503463       -0.4763876646
 O        -6.9474890713        4.8902010191       -1.0548295773
 C        -5.1911547801        6.4380487011       -1.1888671193
 C        -6.0046745601        6.9142175286       -2.3816415484
 C        -7.2265087146        7.7509672605       -1.8955264429
 O        -7.4101827213        7.9961518487       -0.7201191294
 C        -8.2484983577        8.1562447124       -3.0359444879
 C        -8.9131712764        6.8331936614       -3.5883711220
 O        -8.3126531238        5.9344197865       -4.1308822324
 C       -10.4331758398        6.5494003455       -3.4169141218
 C       -10.8202929945        5.1524222543       -3.9704811627
 C       -10.1505211284        4.0555777017       -3.1166032462
 O       -10.1494716942        4.2103388214       -1.8971475694
 C        -9.7076688218        2.6781581940       -3.8250919259
 C        -8.1352565440        2.4010488557       -3.6129426276
 O        -7.6867506184        2.4673381603       -2.4154501573
 C        -7.2580895492        2.1447358010       -4.7923680668
 C       -10.4115537879        1.5029959738       -3.0849243982
 C       -10.0400567095        2.7275159856       -5.3441359741
 C        -9.2681345519        9.2204972442       -2.5335264040
 C        -7.5234222655        8.6723987205       -4.3951318354
 C        -4.3163632481        5.6918633883        1.4472538973
 C        -5.2233117396        3.4085283294        0.8323802030
 C        -9.0988954848        4.2655273453        6.7555571640
 C        -8.0140282603        2.0291495726        6.0502609339
 C       -11.4591332723       -0.6848550003        2.4149650799
 C        -9.6337194055       -1.2862065039        0.8034543765
 C       -16.3328528996        2.5948887871       -2.1942368285
 C       -15.4651474908        4.7607365132       -1.7270846086
 H       -17.3084187242        4.7771719325        0.4264991877
 H       -17.3080718654        3.6337996102        1.7180955574
 H       -18.1841413768        3.2283411209        0.3186997197
 H       -13.0151278833        0.9971727777       -2.1391353467
 H       -14.5568620331        0.6232247956       -1.2560716635
 H       -13.5392839009        0.7966816242        0.7867678036
 H       -12.3122908862        1.9518820411        0.2862635982
 H       -11.4458332274        2.2095892242        2.4921216405
 H       -10.1748802638        3.0111192538        1.7612374969
 H        -8.3579456917        1.9520464488        3.1273380980
 H        -9.6138158017        1.0541940285        4.1593148751
 H        -6.7679622988        6.2435181465        5.2257292602
 H        -8.2721396254        6.0775046167        4.3576333481
 H        -5.3897833127        5.7883556507        3.4904345500
 H        -6.6254235692        6.8699762942        2.8292046203
 H        -4.2213928135        6.0052661157       -1.4564604014
 H        -4.9702973786        7.2006175708       -0.4884174133
 H        -6.3302669975        6.0723279245       -3.0160931984
 H        -5.4963982958        7.6098126823       -3.0142175948
 H       -11.0351730160        7.3110986030       -3.8668053137
 H       -10.5874003974        6.7004891379       -2.3770176118
 H       -10.7539673701        4.9610327831       -5.0382605852
 H       -11.8600808902        4.9865472943       -3.6860951538
 H        -7.2664402752        1.0720450100       -5.0482735533
 H        -6.1698260690        2.4183012982       -4.6251983785
 H        -7.5927244484        2.6871515295       -5.6695928018
 H        -9.9200393359        1.2881451123       -2.1645346105
 H       -10.3023913323        0.5956333398       -3.7858017604
 H       -11.5105144070        1.7551677611       -2.9740040396
 H        -9.7329469223        1.8098934051       -5.7672690746
 H        -9.5372205018        3.4963378856       -5.8678804752
 H       -11.1337906466        2.8116028805       -5.4799170399
 H        -8.6306854392       10.1092106294       -2.4050358256
 H        -9.5969853538        8.9298994279       -1.5451719095
 H       -10.0690525744        9.3132444988       -3.2512269234
 H        -8.1337526602        9.2974683082       -5.0219841701
 H        -7.1442272175        7.8698435425       -4.9117784832
 H        -6.6817888723        9.3018476162       -4.0537747096
 H        -4.4185794340        6.8110480746        1.5524052320
 H        -3.5781160016        5.5578578555        0.7157543604
 H        -3.8441090604        5.4042381045        2.4118956972
 H        -4.4937911285        3.1749087231        0.0716777273
 H        -6.0399769636        2.8205878029        0.4842871865
 H        -4.9258733296        2.8689783784        1.7360507085
 H       -10.1852386237        4.0315404907        6.7788877701
 H        -8.9597893001        5.3141047383        6.5017069325
 H        -8.7120990914        3.8934425731        7.7218805130
 H        -7.4965702651        1.6056638951        5.2478219390
 H        -8.9026459708        1.3742266644        6.2820995063
 H        -7.3751867406        2.0160572606        6.9633640833
 H       -10.6823012743       -1.0415548502        3.1225813960
 H       -12.0947968647       -1.5064336571        2.1192333033
 H       -11.9322038334        0.2060907842        2.9132896124
 H        -9.2041721027       -1.3425977597       -0.1839973999
 H        -9.9934630295       -2.3074370565        1.0510405687
 H        -8.7916069966       -1.1561169698        1.5352459191
 H       -15.9961139106        2.6506013160       -3.2151079210
 H       -17.3013437651        3.1357409666       -2.1848850348
 H       -16.4536660869        1.5747942159       -1.9134605871
 H       -15.2964333653        4.8729958729       -2.8263240458
 H       -14.6986621292        5.4118263654       -1.2786438145
 H       -16.4133473527        5.3519274717       -1.5695531936
 Na       -8.4518317208        3.1641127360       -0.4034897081
