117

 C       -17.1526215790        3.8790242296        0.6590417090
 C       -15.9613261539        3.0742942361        0.1966369289
 O       -15.4722996172        2.1878405325        0.9148603444
 C       -15.4489173120        3.2919440834       -1.3351285293
 C       -13.9526199579        2.7953508182       -1.4380405821
 O       -13.0149136404        3.5222434437       -1.7018069674
 C       -13.7049838683        1.2816481023       -1.1993835866
 C       -12.7557043806        1.0502681544        0.0170575443
 C       -11.8150249256       -0.1955123148       -0.0683386998
 O       -11.8492555021       -1.0050874462       -0.9683744735
 C       -10.7495702312       -0.2634383924        1.1144674954
 C        -9.9364202003        1.0792100645        1.1923989049
 O        -8.9486515457        1.1975784905        0.4648285232
 C       -10.3304691848        2.1936340279        2.2705490774
 C        -9.4630449677        2.0617324242        3.5451853297
 C        -9.5860547581        3.2308803104        4.4554241577
 O       -10.5430877520        3.9154877962        4.4633956125
 C        -8.4452177356        3.4760986117        5.5126853188
 C        -7.1916629511        4.1438291773        4.8798789232
 O        -6.1951588802        3.5360000208        4.6915303841
 C        -7.4264254841        5.6684511417        4.3450001946
 C        -6.4854633291        5.9247087857        3.1726156554
 C        -6.8200032836        5.1058266602        1.9685739669
 O        -7.8233125408        4.4427295740        1.8876701132
 C        -5.5459048012        4.8769129320        0.9136956523
 C        -5.9339743846        5.4316525811       -0.4610300980
 O        -6.8803432231        4.8937125295       -1.0325596063
 C        -5.0680758850        6.4982441133       -1.1576196634
 C        -5.8695411980        7.0386819055       -2.3666722018
 C        -7.1724201001        7.7505788224       -2.0431153019
 O        -7.4363486075        8.0461129377       -0.8850586767
 C        -8.1865161365        8.0861057752       -3.1854226994
 C        -8.9624051495        6.7443734802       -3.6079119620
 O        -8.2986568546        5.8446022998       -4.0711257253
 C       -10.6013625603        6.5093689722       -3.3411797549
 C       -10.9490649776        5.1479821127       -3.9109695265
 C       -10.1954640371        3.9280954996       -3.0763370088
 O       -10.0474368648        4.1680323180       -1.9102736760
 C        -9.7125503352        2.6234552316       -3.7784807426
 C        -8.1631351819        2.3727985225       -3.5682440266
 O        -7.7051622287        2.4154302649       -2.4852835298
 C        -7.3275414718        1.9926591135       -4.7317921693
 C       -10.5175080767        1.4912732707       -3.0699180555
 C       -10.0532860295        2.5904316959       -5.3016612349
 C        -9.1960614237        9.0852349691       -2.6352272530
 C        -7.4089171092        8.7354992884       -4.3616083473
 C        -4.2979956293        5.5891144878        1.4713125323
 C        -5.2157439217        3.3462500794        0.8781968525
 C        -9.0008099774        4.3324700737        6.7142965998
 C        -8.1038824721        2.0879285955        6.1241119976
 C       -11.4899417434       -0.6562959290        2.4542297046
 C        -9.7128516127       -1.3623048503        0.6459002645
 C       -16.3240110613        2.4559555341       -2.3247002115
 C       -15.4912563704        4.8233302796       -1.6115317762
 H       -17.1051631036        4.8876791909        0.4322754915
 H       -17.3762822333        3.8088119948        1.7529519023
 H       -18.0112865737        3.4238254806        0.1698559161
 H       -13.1274225745        0.9740418988       -2.0924897092
 H       -14.6385504113        0.6853169583       -1.0398252973
 H       -13.4397085140        0.9812174559        0.8484139772
 H       -12.1793514060        1.9465983490        0.2219834307
 H       -11.4005522205        2.0503419945        2.5378299883
 H       -10.3845576787        3.2017503579        1.8311983986
 H        -8.4567039510        1.9473325499        3.2874025464
 H        -9.7986645249        1.1411277007        4.1637217103
 H        -7.2008370471        6.3145906017        5.1737910042
 H        -8.4874478037        5.6979992231        4.1980253380
 H        -5.5067145502        5.6102994828        3.5081442023
 H        -6.4724964590        7.0282579533        2.9688353031
 H        -4.0862351858        6.0986462155       -1.4464372328
 H        -4.8667236032        7.2273710847       -0.4076654728
 H        -6.1924687268        6.1925970706       -3.0292260651
 H        -5.3168106529        7.7627490048       -3.0342550219
 H       -11.2342666806        7.2653031799       -3.7711703623
 H       -10.6911368008        6.6854363824       -2.2295158085
 H       -10.7149423129        5.0768600236       -4.9203026905
 H       -12.0272470593        4.9918938326       -3.8539742069
 H        -7.6710749871        1.0453787270       -5.1452302875
 H        -6.3125571841        1.8163280507       -4.3902236064
 H        -7.2838741921        2.7252573083       -5.5815403658
 H       -10.3194068747        1.5148221625       -1.9753179553
 H       -10.2919643182        0.5543657817       -3.4859820921
 H       -11.5243792760        1.7335871250       -3.2942740492
 H        -9.8863108570        1.5602511055       -5.6406593208
 H        -9.3997000274        3.1837756751       -5.8848687756
 H       -11.0872156574        2.8723722602       -5.4954343306
 H        -8.6511939856       10.0322307725       -2.5025904033
 H        -9.4142568533        8.7120464170       -1.6413070996
 H       -10.1319424921        9.0945967451       -3.3139432701
 H        -8.1033910951        9.2249082063       -5.0758505709
 H        -6.7323901705        8.0415524593       -4.8633984784
 H        -6.8523276653        9.5679203032       -3.9504060499
 H        -4.4043316463        6.6563561401        1.7553541332
 H        -3.4936151325        5.5796699833        0.6921600241
 H        -3.8376076261        5.1422765853        2.3515217854
 H        -4.5163698773        3.0712051333        0.0932407276
 H        -6.0276574467        2.7153076007        0.6207322188
 H        -4.9147125144        2.9204642587        1.7918279341
 H       -10.1041366299        4.1960504235        6.7008406269
 H        -8.7122131704        5.4393788355        6.6212444733
 H        -8.6788088919        3.7873293434        7.6293712120
 H        -7.5255031923        1.3933114428        5.4785552955
 H        -9.0736453132        1.6288455709        6.3326811329
 H        -7.6692909074        2.1821067079        7.1053066165
 H       -10.8862755891       -0.6238153601        3.3360627450
 H       -11.8898269838       -1.6636324053        2.2330446688
 H       -12.2430872362        0.1448631803        2.5788871689
 H        -9.3233450560       -1.2338580488       -0.3535981375
 H       -10.0928828664       -2.3865515485        0.6982582940
 H        -8.8242519803       -1.3919796478        1.3337210907
 H       -15.9777008161        2.7786285823       -3.2871215084
 H       -17.3556108426        2.7273860412       -2.3390608107
 H       -16.1061799131        1.3712033382       -2.2936134536
 H       -15.2998036631        5.1177081018       -2.6440360800
 H       -14.7681533215        5.4284513273       -1.0330426860
 H       -16.4640354721        5.3302718578       -1.4528398169
 Na       -8.4764823829        3.3344743016       -0.3818535875
