117

 C       -17.0122347830        4.3348921590        0.6348142850
 C       -15.9934039616        3.2996243945        0.2012517092
 O       -15.7034780479        2.3496769902        0.8662713278
 C       -15.5534445402        3.4400087606       -1.3031822226
 C       -14.1076858170        2.7850199541       -1.4528083723
 O       -13.2444223937        3.3540211546       -2.0806609801
 C       -13.7720573394        1.2956972645       -1.0334472315
 C       -12.7216975053        1.1301546483        0.0714240245
 C       -11.9403537530       -0.1069121300        0.0320246117
 O       -12.0949740354       -1.1032150575       -0.6071081482
 C       -10.7718146419       -0.1400814618        1.1902303157
 C       -10.1040860564        1.2061265004        1.2713787816
 O        -9.3113373101        1.4607035347        0.3466802895
 C       -10.2390872047        2.2305810687        2.3166940019
 C        -9.1949412540        2.0937366139        3.3633717616
 C        -9.4702665594        3.3611865676        4.3301119155
 O       -10.3349677847        4.1714339319        3.9713854862
 C        -8.6109833143        3.5843538874        5.6070826964
 C        -7.3583788800        4.3669740609        5.1092683507
 O        -6.2458010734        3.8613176373        5.2171123762
 C        -7.5041659028        5.7357332284        4.3332183180
 C        -6.2785643440        5.7712392954        3.3264427077
 C        -6.5320229106        5.0857993054        1.9125996120
 O        -7.6879399077        4.7982757292        1.5605164614
 C        -5.3949378098        4.8562960347        0.8986604562
 C        -5.8640471021        5.4671997243       -0.4822989942
 O        -6.7573755554        4.9692850111       -1.1292869714
 C        -5.1485409863        6.7126447247       -1.1254161495
 C        -5.6770094967        7.2528000262       -2.4007169621
 C        -7.0858550666        7.7670475404       -2.1624196197
 O        -7.4168431582        8.1195353457       -1.0625513643
 C        -8.0074366049        7.9226557829       -3.4403218499
 C        -8.7882881006        6.4869930884       -3.5966247751
 O        -8.1681724600        5.4993404721       -3.8716153468
 C       -10.3444143149        6.3084824819       -3.4498162968
 C       -10.7716192999        4.9746863878       -3.8468276076
 C       -10.0993023137        3.8893654929       -2.9850742382
 O       -10.0475349355        4.1205541090       -1.7302063589
 C        -9.8438990321        2.4007386852       -3.5056172949
 C        -8.3674997365        2.0403339743       -3.3384681475
 O        -7.7596773780        2.2363349614       -2.2603120685
 C        -7.6288677967        1.3582670704       -4.4930804682
 C       -10.6885760398        1.3409570002       -2.7270576910
 C       -10.2914865748        2.2995254842       -4.9332032614
 C        -9.0674768384        9.0071529093       -3.1356413769
 C        -7.1998455101        8.2532074071       -4.7456938586
 C        -4.0532390416        5.3735692293        1.4766507243
 C        -5.2043044313        3.2962328338        0.5809827620
 C        -9.5667559962        4.3750565770        6.5360506037
 C        -8.0243549136        2.3112732569        6.1383634100
 C       -11.3987052958       -0.7020449881        2.5066897297
 C        -9.7637921871       -1.1737067518        0.6743760633
 C       -16.5492662230        2.5182276547       -2.0778827191
 C       -15.5088531794        4.8772890792       -1.8767611442
 H       -17.2084010469        4.3106919487        1.7328108246
 H       -17.9221159905        4.0940574839        0.1697843290
 H       -16.8237108578        5.3418281845        0.3233773406
 H       -13.3331293936        0.8939020047       -2.0044805800
 H       -14.6817304704        0.7832140222       -0.7016238798
 H       -13.2283867935        1.2266437222        1.0146546590
 H       -12.0723739228        1.9919004932       -0.0257996105
 H       -11.1489867838        2.0470217990        2.8537860992
 H       -10.1088929029        3.2637015692        1.8456064411
 H        -8.1821650940        2.1640073540        2.8640028393
 H        -9.2098264422        1.1729126872        3.8602625562
 H        -7.4657012808        6.4744785027        5.1109957872
 H        -8.4715323878        5.7778007095        3.8068260269
 H        -5.4010379478        5.2613015744        3.7645947899
 H        -5.9043165207        6.8010180515        3.1408397300
 H        -4.1737892739        6.3744345003       -1.3583727889
 H        -5.0451772104        7.5291492526       -0.3962655709
 H        -5.6257316087        6.5377735898       -3.2408298506
 H        -5.0521384174        8.1655575593       -2.6791836657
 H       -11.0258527656        7.0786506607       -3.9213618687
 H       -10.4860801747        6.4234197743       -2.3724277639
 H       -10.4964673952        4.6869072928       -4.8765372709
 H       -11.7914387217        4.7387767845       -3.8145156098
 H        -7.9291950325        1.6554720144       -5.5159738897
 H        -7.8383022476        0.2690467531       -4.5379138729
 H        -6.5436610828        1.4842993507       -4.4069701291
 H       -10.0835119271        1.0419825904       -1.9466978522
 H       -11.0538830044        0.5339842732       -3.3845738627
 H       -11.5665006551        1.8346545096       -2.2918359048
 H       -10.2281553526        1.2812082072       -5.2834606020
 H        -9.6989662691        2.9647923652       -5.5882784752
 H       -11.2966115843        2.5503668588       -5.0451230738
 H        -8.5760962564       10.0184293382       -3.2787130095
 H        -9.2903040430        8.8435514903       -2.0039969546
 H        -9.9644965173        9.0113196875       -3.7516006076
 H        -7.8082973474        8.4495827212       -5.5958053133
 H        -6.5193772284        7.4074483095       -4.9687657587
 H        -6.5563633808        9.0892651541       -4.5495157872
 H        -4.1032317096        6.3510132802        1.9613594689
 H        -3.2255156967        5.4133480741        0.7221325490
 H        -3.6362618410        4.6216532349        2.1803821945
 H        -4.3123509609        3.1895865514        0.0285569684
 H        -5.9303687051        2.6959612853        0.0256800333
 H        -5.0736468665        2.6537386425        1.4313176228
 H       -10.1130305858        3.5920693087        7.1821569001
 H       -10.3536153076        4.8664826507        5.9184903316
 H        -9.1294264804        5.2689798618        7.0648806054
 H        -7.3978617506        1.9252251573        5.2988835130
 H        -8.6795294084        1.4949443533        6.3985478193
 H        -7.3600555323        2.4596071638        6.9953357756
 H       -10.5833765057       -1.2653381142        3.0694334494
 H       -12.0756148150       -1.4820511761        2.1043616254
 H       -11.9436692425       -0.0336373093        3.1798534943
 H        -9.2234258493       -0.8187222307       -0.2637380745
 H       -10.2225592136       -2.1322179036        0.3707152206
 H        -8.9906388635       -1.4860099758        1.3581281953
 H       -16.1720092296        2.1080799214       -3.0227524676
 H       -17.5103526999        2.9796440983       -2.2098540945
 H       -16.6149030266        1.6758696586       -1.4210555860
 H       -15.2052619656        5.0563226573       -2.9449942946
 H       -14.7838013928        5.4899178683       -1.2592639445
 H       -16.5018315343        5.3671877713       -1.8150688469
 Na       -8.2746996782        3.3450100719       -0.4366264117
