117

 C       -17.0491477562        4.4855413083        0.6637714740
 C       -16.0553913767        3.3923369223        0.1756140067
 O       -15.7143373715        2.4990494617        0.9579159207
 C       -15.5485314366        3.3932191078       -1.2457303355
 C       -14.1684275321        2.7107960780       -1.5396629024
 O       -13.3220020388        3.3636185316       -2.1547983244
 C       -13.8661410835        1.2322129324       -1.1652386478
 C       -12.9264947576        1.1446205540        0.1408435883
 C       -12.0458935095       -0.1453900007        0.1357759347
 O       -12.1590308003       -1.1139427934       -0.5727124491
 C       -10.7742172401       -0.2505643328        1.1863652615
 C       -10.0397133969        1.1810186415        1.1729244429
 O        -9.1659491018        1.4087769846        0.3697244849
 C       -10.3473978876        2.2045077981        2.2614544153
 C        -9.2987014931        2.2174075288        3.3802879870
 C        -9.4379616679        3.3829284647        4.2447661608
 O       -10.3186864351        4.1957196478        3.9976669640
 C        -8.5783366609        3.6061193580        5.4731276885
 C        -7.3241231427        4.3993587368        5.0946443144
 O        -6.2572072313        3.9584241105        5.3941909213
 C        -7.4058931274        5.7112621122        4.2297768240
 C        -6.2690472891        5.8037826586        3.2059938437
 C        -6.5847898032        5.1195542098        1.8840102174
 O        -7.6694462024        4.6597172102        1.6628157723
 C        -5.3645041522        4.9162716222        0.8324481036
 C        -5.8379286869        5.4184757676       -0.5315827677
 O        -6.7933132142        4.9405235483       -1.1216758723
 C        -5.0324051745        6.6330112486       -1.0543298005
 C        -5.5424279319        7.2331375713       -2.3361633973
 C        -7.0412300188        7.8402852345       -2.2322748001
 O        -7.4717406580        8.1171045394       -1.1214451538
 C        -7.9747196458        7.9456338107       -3.4683851870
 C        -8.8168361014        6.4676701596       -3.5885746583
 O        -8.2025901207        5.4442957596       -3.7441683562
 C       -10.3447516738        6.3531275145       -3.4544649007
 C       -10.7590550939        4.8767190429       -3.8682505556
 C       -10.2453285388        3.7587655988       -2.9057641645
 O       -10.0734088186        4.0298586250       -1.7227084762
 C        -9.8577125365        2.3761714318       -3.5005792228
 C        -8.2937871130        2.0042972855       -3.3855152541
 O        -7.6419483092        2.1156504822       -2.3294438181
 C        -7.6132691502        1.2178225030       -4.4905295915
 C       -10.6750560885        1.4317008789       -2.4855200353
 C       -10.2974681980        2.2297342146       -4.9860085034
 C        -9.0068895743        9.0793786406       -3.3329108508
 C        -7.0746058495        8.2849649164       -4.7099651186
 C        -4.0460240143        5.4730519418        1.3926085617
 C        -5.2009015732        3.3795010894        0.6152415914
 C        -9.4424418570        4.5068374700        6.5438280711
 C        -8.1081260834        2.3076322828        6.1894217795
 C       -11.3837069776       -0.6998102978        2.5374140231
 C        -9.7395657286       -1.2447369231        0.6803996156
 C       -16.5469219987        2.5444602562       -2.0881803543
 C       -15.5792485277        4.7858539694       -1.8855232048
 H       -17.5813681940        4.2181276110        1.5810625129
 H       -17.7702989625        4.8311503015       -0.0339289242
 H       -16.4359495875        5.4060810645        0.9023641994
 H       -13.4268594962        0.7268715911       -2.0434843785
 H       -14.8111892060        0.7947034580       -0.8163392284
 H       -13.5610192647        1.3894155712        0.9782841551
 H       -12.2326082599        1.9298192644        0.0017467216
 H       -11.2861911195        1.9056762061        2.7665332254
 H       -10.2897530509        3.1674401806        1.7981530316
 H        -8.2794357352        2.1581563297        2.9686372526
 H        -9.3653052221        1.3972185113        4.0233537631
 H        -7.3174520997        6.5518016749        4.9637161035
 H        -8.3862570060        5.7279211495        3.7277386551
 H        -5.2719758332        5.4480066206        3.6243829852
 H        -6.0486973126        6.8342152908        2.9501674285
 H        -3.9559329149        6.4029148509       -1.0752687024
 H        -5.2099426995        7.3817172802       -0.2381148261
 H        -5.5491167786        6.4252398755       -3.1281908024
 H        -4.9137970625        8.0628556205       -2.7021993987
 H       -10.9502538149        7.0742911060       -4.1129666693
 H       -10.6348630288        6.5961142520       -2.4086211972
 H       -10.4026045239        4.5813424965       -4.8718338799
 H       -11.8128888389        4.6038354619       -3.9284864593
 H        -7.4765745122        1.8120076777       -5.3813404569
 H        -8.1343698035        0.3176897480       -4.9024885941
 H        -6.6476090702        0.9440406990       -4.1451999106
 H       -10.0875066680        1.2741361036       -1.6403577229
 H       -10.9956016581        0.5455694462       -2.9872006652
 H       -11.5124251611        1.9729687108       -2.1738892897
 H       -10.1786196326        1.2145142456       -5.2930986291
 H        -9.7429910612        2.8724827668       -5.6617049150
 H       -11.3817392207        2.3868398726       -5.1549224946
 H        -8.2995417994        9.9654142948       -3.4559406598
 H        -9.3509666175        9.0496989602       -2.2793071790
 H        -9.8225999901        9.2009934278       -4.0696744684
 H        -7.6312134428        8.6226954543       -5.6074004091
 H        -6.4996022537        7.4381002869       -4.9772682802
 H        -6.2956608215        9.0677893081       -4.3970123499
 H        -4.1104703700        6.5128283808        1.8155080433
 H        -3.2976354064        5.4807923741        0.6692140400
 H        -3.5979684086        4.7557762680        2.1331599008
 H        -4.4496713728        3.2010106815       -0.1226519922
 H        -6.0528861152        2.8656322555        0.2632252648
 H        -4.8878035775        2.7420702840        1.4497936769
 H        -9.9478681105        3.7474570740        7.1563430927
 H       -10.2103279070        5.1449780071        6.0653939160
 H        -8.8213258766        5.2554773656        7.0834093799
 H        -7.2829965427        1.8535816770        5.7450077642
 H        -8.9277587243        1.5454261061        6.1345104277
 H        -7.8557374580        2.4192917813        7.2686927650
 H       -10.6080499388       -1.0990270880        3.2160858734
 H       -12.1156930855       -1.4470951753        2.3474601936
 H       -11.9469966247        0.1465053483        2.9946790719
 H        -9.3955383161       -1.0988900638       -0.3259587801
 H       -10.1059542735       -2.2790019737        0.6994180420
 H        -8.8243078061       -1.2992455340        1.2928512838
 H       -16.1590489572        2.3757167670       -3.0938546216
 H       -17.5380064819        3.0931801922       -2.0991179718
 H       -16.7063511400        1.6014992397       -1.6158580065
 H       -15.5885508041        4.7444534891       -2.9719949003
 H       -14.7409869006        5.4050367160       -1.6466694112
 H       -16.4942373742        5.3466164961       -1.6374123342
 Na       -8.2295723762        3.4099230861       -0.4052276807
