117

 C       -17.0012696545        4.5642420278        0.7253674947
 C       -16.0583429544        3.4446963351        0.2380807746
 O       -15.6990641177        2.6316865040        1.0742694257
 C       -15.6419503021        3.3244669238       -1.3411750629
 C       -14.2066079105        2.6932132881       -1.5657015092
 O       -13.3330409930        3.2894718118       -2.1798287609
 C       -13.9817036734        1.2181187478       -1.1234833466
 C       -12.9963615080        1.0999589742        0.1406124878
 C       -12.0635421958       -0.1185864507        0.0941715717
 O       -12.3817024538       -1.0602039681       -0.6136216392
 C       -10.7643043465       -0.2649373625        1.1989989110
 C        -9.9971416632        1.1087223217        1.1925550356
 O        -9.0902394152        1.2611598983        0.3858276619
 C       -10.4666279266        2.1971786638        2.1932576485
 C        -9.3739011506        2.1864800279        3.3467592780
 C        -9.6014216096        3.4707270387        4.2617147058
 O       -10.3541229968        4.3302114159        3.9384781647
 C        -8.6147105269        3.6300353414        5.5058118093
 C        -7.1781616050        4.4330889170        5.0531526112
 O        -6.0990349197        4.1369897135        5.4958793230
 C        -7.3680181770        5.6801194682        4.1434216045
 C        -6.3231457565        5.8653346124        3.1203652657
 C        -6.5827284499        5.0033009922        1.9051195237
 O        -7.6515030742        4.4929286782        1.7021190343
 C        -5.3350440782        4.8177713919        0.8597654079
 C        -5.8334144431        5.5519214250       -0.4779436148
 O        -6.6903385703        5.0636676411       -1.1901656943
 C        -5.0217053620        6.7283099354       -1.0587858486
 C        -5.6583215839        7.2152271202       -2.3702454744
 C        -7.0989134632        7.7089282148       -2.2287135361
 O        -7.4827303601        8.1416958331       -1.1645944945
 C        -7.9830727993        7.8564264132       -3.4840604293
 C        -8.7323475299        6.4912704914       -3.6318488562
 O        -8.0185386626        5.4880436262       -3.6746831062
 C       -10.2396480338        6.3861826409       -3.4525344162
 C       -10.7298037384        4.9571668497       -3.8731198378
 C       -10.0717761545        3.8271433998       -2.8874414282
 O       -10.0698201148        3.9957183247       -1.7372422551
 C        -9.8032580337        2.3339873918       -3.4721607914
 C        -8.2709150735        1.8479185543       -3.3468672800
 O        -7.6702026610        2.1288361960       -2.3688148062
 C        -7.6547845943        1.1457236667       -4.5167933441
 C       -10.5631813533        1.4473530792       -2.4582337957
 C       -10.3427015600        2.1068762386       -4.8938682975
 C        -8.9251669953        9.1298658223       -3.4138269108
 C        -7.0817533776        8.0892787201       -4.7212550155
 C        -4.0732218866        5.5402923480        1.3005642635
 C        -5.1617894719        3.3470826773        0.7333167558
 C        -9.2060659034        4.6046184224        6.5937751065
 C        -8.3237786779        2.3139035882        6.2539743502
 C       -11.3104167342       -0.6019066729        2.5594326201
 C        -9.7981139424       -1.3282142603        0.6850673877
 C       -16.7051446925        2.4619629081       -2.1530240457
 C       -15.5461626947        4.7863711788       -1.9594519426
 H       -17.8421412403        4.1978757771        1.2656813563
 H       -17.4240755014        5.2351453094       -0.1061376773
 H       -16.4649812747        5.2576630329        1.3907060678
 H       -13.5752154731        0.7588873038       -1.9878324025
 H       -14.8946451606        0.7155353793       -0.8053492610
 H       -13.7027665599        0.9650454644        0.9810946344
 H       -12.4912685000        2.0575345225        0.2371424362
 H       -11.4571188643        1.9983651071        2.6247899565
 H       -10.2539490192        3.0918933485        1.6942327026
 H        -8.4326652789        2.2635962189        2.8969325592
 H        -9.2886055448        1.2467157538        3.9891670029
 H        -7.2589617140        6.5558571538        4.8510762653
 H        -8.3852588662        5.6137534069        3.7396805898
 H        -5.3549173597        5.6041333474        3.5794295014
 H        -6.1461670761        6.9008248213        2.8005698199
 H        -3.9659931645        6.3120960295       -1.1880508331
 H        -5.0022718775        7.5239519497       -0.3036914883
 H        -5.6507291946        6.3745148952       -3.0703164269
 H        -5.1631714808        8.0474703006       -2.8291312963
 H       -10.6875653080        7.0136753240       -4.2150316023
 H       -10.6970972898        6.7310055195       -2.4792945783
 H       -10.7063632178        4.7174195849       -4.9183134621
 H       -11.8093305772        4.7208374792       -3.5561663559
 H        -7.2057937506        1.8761527772       -5.1646118438
 H        -8.3138330615        0.6459188312       -5.1734377128
 H        -6.8661082745        0.4521072472       -4.2238832533
 H       -10.1472908540        1.4956119245       -1.4146656909
 H       -10.4601357986        0.5179045632       -2.9051718726
 H       -11.5705806942        1.7471311691       -2.4205596551
 H       -10.3520579653        1.0398428165       -5.1731274749
 H        -9.7856109914        2.6572335735       -5.6260199286
 H       -11.4338804818        2.3560408762       -5.0035768976
 H        -8.2763344353        9.9817640668       -3.3868876962
 H        -9.5475594246        9.0884115946       -2.5618390994
 H        -9.5513931528        9.2219636566       -4.3536272368
 H        -7.7031864345        8.4432636517       -5.5890394910
 H        -6.4889717566        7.2298610316       -5.0676174320
 H        -6.3516716424        8.8766652653       -4.4470338892
 H        -4.2148907992        6.6135311009        1.2361093597
 H        -3.3284361425        5.2970408477        0.5476634232
 H        -3.5988120546        5.2771138441        2.2203770628
 H        -4.5493237590        3.0148529789       -0.1283086497
 H        -6.1015111588        2.8297340386        0.6119582614
 H        -4.6875960662        2.8068291356        1.5455420646
 H        -9.9384556333        4.1036838190        7.1473797212
 H        -9.6500444685        5.4941065281        6.1398830987
 H        -8.4267066876        5.0290677713        7.1761933328
 H        -7.5292309619        1.6876066363        5.8437037779
 H        -9.2309761786        1.7109276406        6.1421352356
 H        -8.0993157872        2.3742920114        7.3042109351
 H       -10.5265578873       -0.6396109081        3.2432445492
 H       -11.8800795280       -1.5389391216        2.5846475026
 H       -12.0459243485        0.1657829114        2.8252956130
 H        -9.6200422535       -1.3737778796       -0.3398971001
 H       -10.1665184672       -2.3008501771        0.9354598510
 H        -8.8006936432       -1.3042707325        1.1451286029
 H       -16.4304690492        2.5045269133       -3.2006704177
 H       -17.6902343211        2.9477233819       -1.9724819694
 H       -16.8292718336        1.3902358857       -1.8210210474
 H       -15.4799180531        4.7165547079       -3.0115848418
 H       -14.6625109801        5.2769516121       -1.6464725213
 H       -16.3796976699        5.4229840408       -1.7331878167
 Na       -8.2676557863        3.4386152011       -0.3510356259
