117

 C       -16.9289675998        4.5808366946        0.6905706842
 C       -16.0644585985        3.4701502759        0.2092687690
 O       -15.5918602424        2.7044950968        0.9894283016
 C       -15.7099142873        3.3467204084       -1.3822306182
 C       -14.2888533736        2.5927341132       -1.5275785500
 O       -13.4107553319        3.1778241613       -2.1138934516
 C       -14.0350285688        1.1771555822       -0.9344789738
 C       -13.0272397555        1.1462954943        0.2004493181
 C       -12.1927091741       -0.1429110127        0.1326674162
 O       -12.3998906807       -1.0448643381       -0.6222107754
 C       -10.9322358342       -0.2161780566        1.0959523791
 C       -10.0584501342        1.0834331507        1.1678762100
 O        -9.0386217149        1.2151969862        0.4515592686
 C       -10.4063392600        2.2308500325        2.1223098520
 C        -9.4111983071        2.2811083881        3.3652086836
 C        -9.5406982127        3.5927090234        4.2733918761
 O       -10.3652273707        4.4553875507        3.9860255404
 C        -8.5635496061        3.7206305811        5.5259581149
 C        -7.2386112943        4.4084863733        5.0718775994
 O        -6.1213342202        4.1974919230        5.5137283739
 C        -7.4658223763        5.6759919533        4.1989846461
 C        -6.3740281938        5.8895330646        3.1526976240
 C        -6.5135452742        4.9971682116        1.8886641120
 O        -7.5404935668        4.3253474292        1.6917230941
 C        -5.3625780775        4.8554872134        0.7934400748
 C        -5.7629859304        5.5242470966       -0.5643788304
 O        -6.7300876646        5.0776743409       -1.1447045897
 C        -5.0943355645        6.7919274272       -1.1218273133
 C        -5.7299223773        7.1594236703       -2.4316570740
 C        -7.0988337939        7.8225043009       -2.1727424584
 O        -7.5425708313        8.1445438818       -1.1008268028
 C        -7.9418296730        7.8644016996       -3.5612670172
 C        -8.5965030834        6.4668521408       -3.6193394307
 O        -7.9037246095        5.4769926567       -3.7002526542
 C       -10.0946726574        6.3112610492       -3.5000568874
 C       -10.6467121148        4.9499509712       -3.8112982171
 C       -10.0609842128        3.8633981321       -2.9429259821
 O        -9.8927842427        4.0943058399       -1.7194809813
 C        -9.8264071510        2.3349837913       -3.4705238571
 C        -8.2631412614        1.9611882873       -3.3660553544
 O        -7.6405324655        2.1256048759       -2.3145902883
 C        -7.6461821185        1.1341878265       -4.4872336606
 C       -10.5180522805        1.3548059169       -2.4871929130
 C       -10.4476618746        2.0972029917       -4.8137955972
 C        -8.8963284341        9.0759320149       -3.4078339466
 C        -7.0877127565        7.8678528582       -4.8699686370
 C        -4.0471475276        5.5391186053        1.3547892459
 C        -5.1044516066        3.3209275750        0.7350691230
 C        -9.0619804976        4.7327855871        6.5256754000
 C        -8.4049892955        2.3584899791        6.1873624549
 C       -11.3572038230       -0.5226908078        2.5438593870
 C        -9.9571875147       -1.4342303288        0.6180584832
 C       -16.7698469365        2.5264455940       -2.0384999054
 C       -15.5384237801        4.7261905057       -2.0177835640
 H       -17.9393305671        4.1899382841        0.9585307259
 H       -17.1198108902        5.3418061905       -0.0730045527
 H       -16.5432694855        5.0612613738        1.5668030577
 H       -13.5382160520        0.6913072011       -1.7712877523
 H       -14.8780070313        0.5702246159       -0.6680483787
 H       -13.6071625095        1.1210798075        1.1444654145
 H       -12.4306809928        2.1068683044        0.1375267934
 H       -11.3476333625        2.0529997394        2.5591443634
 H       -10.2083861062        3.1096508694        1.4856775224
 H        -8.3596869219        2.1025674323        3.1290424298
 H        -9.6804328555        1.3995875391        4.0423209862
 H        -7.4154539525        6.5370077931        4.8643309974
 H        -8.4594603821        5.5726263988        3.7430478550
 H        -5.4168466504        5.8548633445        3.6071435707
 H        -6.3817870744        6.9271907582        2.7417832422
 H        -4.0140176248        6.5767127810       -1.2338414589
 H        -5.2382474291        7.5834912009       -0.3830100459
 H        -5.8524228018        6.2959966500       -3.0253697834
 H        -5.1642370283        7.8968096375       -2.9900251192
 H       -10.6475150041        6.9269305827       -4.1613596444
 H       -10.4660166995        6.5518846077       -2.5059412452
 H       -10.5395446028        4.5759458093       -4.8364842185
 H       -11.7313679046        4.8775286806       -3.5767446055
 H        -6.9308980642        1.6191848099       -5.1533355599
 H        -8.3735474452        0.7393787449       -5.1424749778
 H        -7.1312148399        0.2656032204       -4.0633056987
 H       -10.3544619544        1.6789737113       -1.4567412206
 H       -10.0603294233        0.3611490268       -2.7173056393
 H       -11.6332131265        1.3705424302       -2.6548846960
 H       -10.6559860731        1.0174209575       -5.0004799852
 H        -9.8847836571        2.5058892521       -5.6783351973
 H       -11.4357377900        2.5112545693       -4.8291319498
 H        -8.4256752357        9.9748401693       -3.1624722289
 H        -9.6279386328        8.8167690545       -2.6476190866
 H        -9.4491922570        9.1837415144       -4.3185012279
 H        -7.7113148844        7.9780455193       -5.7556295344
 H        -6.4813330160        6.9139093639       -5.0180437536
 H        -6.3858579564        8.6536507524       -4.8260886600
 H        -4.0253471086        6.5832720519        1.3201306375
 H        -3.2328052884        5.1851426540        0.6479293673
 H        -3.7477770238        5.1957309551        2.3048336470
 H        -4.4559026314        3.0193186183       -0.1046839803
 H        -5.9511074006        2.5816736172        0.6972857604
 H        -4.5009019340        2.9660461806        1.5644428313
 H       -10.0663819866        4.5170350401        6.8380875733
 H        -9.0895409037        5.6760829926        6.0738120472
 H        -8.4219967532        4.8762473552        7.3581276453
 H        -7.8135127170        1.5964030233        5.5879763525
 H        -9.3596185007        1.9216447072        6.3132840623
 H        -7.8760606037        2.3650097986        7.1138354523
 H       -10.4866919450       -0.3209466562        3.1438125768
 H       -11.5253921618       -1.6070944696        2.6251894033
 H       -12.2585375513       -0.1039103387        2.9207148959
 H        -9.7030904420       -1.5724057322       -0.4360811575
 H       -10.3635108623       -2.3796336345        0.8932484966
 H        -9.0170991484       -1.3948302775        1.0887331870
 H       -16.5830950689        2.5737179845       -3.1282194315
 H       -17.7586171843        2.8424527117       -1.7584674508
 H       -16.7310387490        1.4529537780       -1.6923042530
 H       -15.1795282036        4.5732758840       -3.0248784016
 H       -14.8033530592        5.3508705433       -1.5001964751
 H       -16.4586493323        5.2591591107       -2.0312870016
 Na       -8.3074656369        3.3950591875       -0.3537371172
