117

 C       -16.9186961430        4.6364887546        0.6104424340
 C       -15.9603377682        3.5225835385        0.1814419784
 O       -15.4456507961        2.6863670147        0.9146230009
 C       -15.6867269208        3.3423691473       -1.3570347906
 C       -14.3291805453        2.5229516394       -1.4184411671
 O       -13.4136906859        3.0433007950       -2.0525179680
 C       -14.2000705539        1.1695513784       -0.8282131729
 C       -13.0312222515        1.1409932444        0.2109162537
 C       -12.1821523109       -0.1289535415        0.2196357993
 O       -12.4257362094       -0.9626326161       -0.6056764569
 C       -10.8907507177       -0.1960479049        1.2032693919
 C       -10.0421697390        1.1163862848        1.1672837426
 O        -9.0369296646        1.1662867637        0.4493926891
 C       -10.3681347204        2.3602808996        2.1670595023
 C        -9.5143805046        2.3671003277        3.4034728704
 C        -9.5112706351        3.6261852679        4.2335645925
 O       -10.3290198642        4.5281671962        4.0615065774
 C        -8.6047147321        3.8137894828        5.4239895734
 C        -7.2601661209        4.4541094206        5.0164643064
 O        -6.2187311578        4.1022506789        5.4785752399
 C        -7.4975479644        5.7618262785        4.1246246402
 C        -6.3925516431        5.9133587197        3.0366598662
 C        -6.4821904135        4.9941315873        1.8507394961
 O        -7.4529008683        4.2457381496        1.7531695546
 C        -5.2792060336        4.8715446693        0.8567733614
 C        -5.8272367622        5.4170806928       -0.5099627979
 O        -6.8014142413        4.9730608451       -1.0495635534
 C        -5.1349192790        6.7238832677       -1.0271142437
 C        -5.6702997770        7.1351694463       -2.3802292644
 C        -7.0470288254        7.8643661915       -2.3259029329
 O        -7.5529736653        8.1389152818       -1.2516767725
 C        -7.9306964876        7.8441687314       -3.5956799354
 C        -8.5374166436        6.3400602501       -3.5369814765
 O        -7.8260491660        5.3992901898       -3.7937362690
 C       -10.0871079417        6.2925255191       -3.4866146645
 C       -10.5917024442        4.8839181053       -3.8532757569
 C       -10.0697165624        3.7995516867       -2.9078098004
 O        -9.7060173956        4.2014315072       -1.7592182776
 C        -9.8893573034        2.3437091813       -3.4231216999
 C        -8.3204013089        1.9749986762       -3.3133862666
 O        -7.6125582038        2.2024117154       -2.3176476657
 C        -7.6573566721        1.1662233977       -4.4032610342
 C       -10.4772387816        1.2974127662       -2.4157802227
 C       -10.5073084238        2.2081551915       -4.8231015761
 C        -8.9219696409        8.9815044863       -3.4855767447
 C        -7.1174323905        7.8657891028       -4.8902715292
 C        -3.9255615401        5.5430047282        1.4348627672
 C        -4.9959932656        3.4039829265        0.6038050459
 C        -9.1625852213        4.8538405807        6.5015570858
 C        -8.3597551074        2.3963459663        6.1151855389
 C       -11.4784988970       -0.5337771828        2.5765037333
 C       -10.1763271234       -1.3767006581        0.5409669046
 C       -16.9015850496        2.5338113325       -1.9238541109
 C       -15.5657057750        4.6785075643       -2.0728706388
 H       -17.9513041526        4.2132451335        0.5774257864
 H       -16.9435838947        5.4794765351        0.0232874912
 H       -16.7662608897        4.8989276059        1.6640275963
 H       -13.9480091190        0.3984393748       -1.6268794511
 H       -15.1350372801        0.8429208771       -0.3714384002
 H       -13.4212607231        1.3821933875        1.2057403722
 H       -12.3735834798        1.9799515320       -0.1375755131
 H       -11.3576904192        2.2151392883        2.5467811193
 H       -10.1005405805        3.2678382975        1.5706876500
 H        -8.3852607315        2.3109102921        3.1206063402
 H        -9.6926923718        1.4952855375        3.9792418913
 H        -7.4401966463        6.6224604428        4.7449135120
 H        -8.4850540614        5.6373863762        3.6935309887
 H        -5.4034636603        5.8105974684        3.4883823917
 H        -6.3009261567        6.9306057001        2.6602031582
 H        -4.1113836031        6.5231429624       -1.1392934758
 H        -5.2635613234        7.4949681770       -0.2657652898
 H        -5.7765447796        6.2527990580       -2.9879062980
 H        -4.9367516563        7.8001032259       -2.8743258083
 H       -10.6876684908        6.9993041464       -4.0895042912
 H       -10.3564360082        6.4178301971       -2.4779656113
 H       -10.0374076564        4.4994851152       -4.7503405777
 H       -11.6141520739        4.7647961827       -4.0324051979
 H        -6.8597051675        1.7597360021       -4.8702614729
 H        -8.2760839154        0.7960660676       -5.2672000841
 H        -7.1662602684        0.3005044469       -4.0073625392
 H       -10.4500588127        1.7361547721       -1.4375818353
 H        -9.8773695553        0.3046304392       -2.4905613034
 H       -11.5906295903        1.2126493170       -2.6556250088
 H       -10.6233967636        1.1545302108       -5.0364335837
 H        -9.9360283735        2.6469014821       -5.6747082501
 H       -11.5074651008        2.5821291845       -4.8492815298
 H        -8.4858440150        9.9820475740       -3.2921298575
 H        -9.7013252158        8.8055485215       -2.7226300066
 H        -9.4361683863        8.9870255082       -4.3958103786
 H        -7.7774032667        7.7492331716       -5.7158612197
 H        -6.4946761438        7.0026951178       -4.9224251269
 H        -6.4909998272        8.7378118839       -5.0729877394
 H        -3.9933167400        6.5921852422        1.7295386355
 H        -3.0621361540        5.4311676115        0.7900379996
 H        -3.6898711471        4.9496127652        2.3381680969
 H        -4.2754510477        3.2376275054       -0.1931465753
 H        -5.8718791911        2.8038988704        0.3101932580
 H        -4.5510799033        2.8156505193        1.4286969221
 H       -10.2557411196        4.7083094961        6.6566028499
 H        -9.0513015137        5.9061018617        6.2955974520
 H        -8.6583096378        4.7139102592        7.4790387380
 H        -8.0704647432        1.5746746699        5.5010006428
 H        -9.1880970646        2.0068785220        6.7029830869
 H        -7.4545585188        2.5288801428        6.7223645644
 H       -10.7237150318       -0.3306460363        3.3995946500
 H       -11.7611763575       -1.5659562415        2.6536852994
 H       -12.4397171876       -0.0535044330        2.7711621312
 H        -9.9053782256       -1.2208052986       -0.5165443095
 H       -10.8136406353       -2.2623453077        0.5215170845
 H        -9.2394470361       -1.6649874160        0.9552401206
 H       -16.7419970271        2.5351789816       -3.0121678900
 H       -17.8621860359        2.9540443203       -1.6273935458
 H       -16.9724001030        1.5461343240       -1.5555926777
 H       -14.9398243796        4.5084209052       -2.9910713089
 H       -15.1641567338        5.5437181335       -1.4985284894
 H       -16.6033522271        4.9551865548       -2.3506151443
 Na       -8.2605858848        3.2710768112       -0.3601218604
