117

 C       -12.0702993449       10.4463419922       -3.6511702964
 C       -11.1990699530        9.2339368820       -4.0394562940
 O       -11.1813643382        8.2569034880       -3.3368993377
 C       -10.3350236964        9.2794645311       -5.3583006086
 C        -8.9626049474        9.9360658913       -4.9048128692
 O        -8.3877471938       10.8154183370       -5.4715470341
 C        -8.2346674439        9.0775692777       -3.8509925836
 C        -7.5408223103        9.8815171286       -2.7907892977
 C        -7.0059326799        9.0398925097       -1.6815254151
 O        -6.4351575619        7.9626700046       -1.7857351839
 C        -7.5824646185        9.2738976138       -0.1980596141
 C        -8.8100980038        8.2189830001       -0.0858213149
 O        -9.9294651746        8.6197713010       -0.0070103211
 C        -8.4687239093        6.7473808451       -0.1009454678
 C        -9.5164049473        6.0299228114       -0.9991730857
 C        -9.5455834769        4.5619078243       -0.9714713830
 O        -8.7305583172        3.9320237159       -0.2634445858
 C       -10.4720229072        3.6943906699       -1.8702926758
 C       -11.5007221501        2.9437612854       -0.9132153931
 O       -11.1451704758        1.8720730345       -0.3761758710
 C       -12.8521335489        3.5203783679       -0.5759527963
 C       -13.3653249336        3.5901745185        0.8420490405
 C       -12.1783520534        3.8320661159        1.8688105902
 O       -11.0891346774        4.2604490286        1.4487843753
 C       -12.1943067581        3.4341048729        3.4073994702
 C       -11.4870158785        1.9386040600        3.4458342624
 O       -10.5447076196        1.6674958476        2.7606055301
 C       -11.9579988350        0.9348602686        4.4948948982
 C       -11.2584646367       -0.3963072356        4.2659847642
 C       -11.8285177181       -1.3833836863        3.1991844855
 O       -12.4182156544       -0.9568257197        2.1693307943
 C       -11.4536541676       -2.8770535531        3.2489609680
 C       -10.1817285253       -2.9233176287        2.1859719341
 O        -9.0472971695       -2.9642871097        2.6117301020
 C       -10.4423517837       -2.8824212701        0.6229705404
 C        -9.0869715359       -2.5967166486       -0.1565545082
 C        -8.5082283107       -1.2187724767        0.2624331142
 O        -9.2554732450       -0.3057510187        0.6072027437
 C        -6.9173025393       -0.8096330285        0.2052913255
 C        -6.4585935550        0.0300639121        1.4418359439
 O        -7.0802574985        1.0185805248        1.8744220134
 C        -5.1404770489       -0.2741433442        2.0388040989
 C        -6.1152851469       -2.0769230808        0.1102156903
 C        -6.5979357936        0.1273472836       -1.0692581571
 C       -10.7847478588       -3.3957222127        4.6158825946
 C       -12.6455367690       -3.7608497332        2.9626754797
 C       -11.1672451912        4.3262845695        4.1733424397
 C       -13.5866195943        3.6145193578        4.0172617192
 C       -11.1952454724        4.5883378019       -2.8885158950
 C        -9.6669012857        2.6954539444       -2.6733332304
 C        -6.3938162842        8.9599161049        0.8029417714
 C        -8.1829735901       10.6986565491       -0.0069481789
 C        -9.9005905339        7.8606754746       -5.8701281805
 C       -10.9053307349       10.1391509928       -6.4571567927
 H       -11.4154698516       11.2096695438       -3.2622552200
 H       -12.6895664569       10.1701190815       -2.7916053691
 H       -12.7018310430       10.9569523893       -4.5123340716
 H        -7.4235558847        8.5956714379       -4.3999007774
 H        -8.9260784735        8.3194322679       -3.4833892729
 H        -8.2321741099       10.7334929252       -2.3835837633
 H        -6.7081520937       10.3820656140       -3.3136991046
 H        -8.6545888051        6.4106069717        0.9805730685
 H        -7.4869223711        6.4208653551       -0.4322907213
 H        -9.3838079864        6.3261962885       -2.0575797141
 H       -10.5433488660        6.4932784146       -0.7148752975
 H       -13.3472908129        2.8467910613       -1.1750978713
 H       -12.9117811078        4.4892860071       -1.0857404531
 H       -13.9186601612        2.7002460473        1.2574407329
 H       -14.1216339281        4.3579129887        0.7310235566
 H       -13.0994964588        0.8855832130        4.5580202697
 H       -11.4675522235        1.2750517205        5.4562015461
 H       -11.3886052994       -0.9783940055        5.1690511203
 H       -10.1622125960       -0.3253805315        4.3861620397
 H       -11.1475042000       -2.0954069593        0.3522860622
 H       -10.8366400561       -3.8603541788        0.2276906493
 H        -9.1807128541       -2.6340048018       -1.1999680698
 H        -8.3670786956       -3.3306862065        0.2599187443
 H        -5.0831942036       -1.2310695383        2.6024133258
 H        -4.8985530362        0.3736787254        2.7927921793
 H        -4.3762036869       -0.2611972680        1.1959721012
 H        -6.6632858777       -2.8502624488       -0.5437057943
 H        -6.0674254291       -2.4947436846        1.0742159033
 H        -5.1221111597       -2.0317042386       -0.2354466454
 H        -7.4942089762        0.6283276719       -1.4964102731
 H        -6.0910505772       -0.3635978173       -1.8672820856
 H        -6.0459925536        1.0080377519       -0.7755506501
 H       -11.3157125230       -3.0907401031        5.4739555514
 H        -9.7897666456       -3.1441965136        4.5754830311
 H       -10.8712288283       -4.5024240561        4.6296036323
 H       -13.2409287994       -3.4766295594        3.8016374569
 H       -12.4908541092       -4.7903984816        2.9338704964
 H       -13.0876940566       -3.4180099151        2.0955491866
 H       -11.5110759514        5.3510285436        4.1595604612
 H       -10.2711230801        4.1620339603        3.5987987207
 H       -10.9059230251        4.0114077508        5.1507366243
 H       -13.9342587306        4.5912905190        3.7302199596
 H       -13.5910748868        3.6310871753        5.1159215239
 H       -14.3273303260        2.9316920227        3.5202923149
 H       -11.7606387294        3.9677058920       -3.5038469557
 H       -10.4129425054        5.1632519873       -3.5379318311
 H       -11.8386239576        5.4098057963       -2.5555644527
 H        -8.8703867654        2.2756329092       -2.0786083899
 H        -9.0227428541        3.2384429039       -3.3776772869
 H       -10.2259163220        1.8687481103       -3.1139626619
 H        -5.6646645268        9.7648759695        0.7222379561
 H        -5.9021416460        8.0454464391        0.4110275494
 H        -6.6393113142        8.8549856422        1.8697479313
 H        -7.4735912003       11.4017086744        0.4491010301
 H        -9.0247190369       10.6966730509        0.7161529305
 H        -8.4176717984       11.1107952417       -0.9501730403
 H        -9.4706560038        7.2645465043       -5.0405472658
 H        -9.1871926240        7.8449467537       -6.7831226929
 H       -10.7971243423        7.4655804121       -6.2185037602
 H       -10.2482220573       10.8245219161       -6.8963986799
 H       -11.5185691841       10.9010941775       -5.9789738134
 H       -11.6134399781        9.6352623137       -7.1399415661
 Na       -8.9761758759        1.9152828693        0.9412507305
