117

 C       -16.8814485896        4.5988660589        0.5811033560
 C       -15.9167325247        3.5217550959        0.2034054963
 O       -15.4004031917        2.8417900067        1.0998404147
 C       -15.6915519931        3.3284670504       -1.4339914573
 C       -14.4154280099        2.4639707752       -1.5153721212
 O       -13.3615997382        2.8818796430       -1.9884740381
 C       -14.3102715303        1.1659231251       -0.7344196329
 C       -13.0742564901        1.3290494237        0.2323217751
 C       -12.1816634661        0.0648839288        0.1487305888
 O       -12.4367686020       -0.9301043525       -0.5332040292
 C       -10.9744486081       -0.1800515285        1.2013185706
 C       -10.0899657024        1.0858049447        1.2655659681
 O        -9.1664762317        1.1700987941        0.5124209671
 C       -10.3660142922        2.3660815536        2.0926559891
 C        -9.5228908779        2.3794073580        3.3550284427
 C        -9.7170984890        3.7140396679        4.2653306020
 O       -10.4307303306        4.5911069354        3.9375136416
 C        -8.6662800821        3.8724965234        5.4985884601
 C        -7.3108614565        4.5525236616        4.9141800298
 O        -6.2492684951        4.1016957745        5.2609791622
 C        -7.3771829483        5.8026232124        4.0466643441
 C        -6.2717723287        5.9585059472        3.0219532824
 C        -6.4060013948        4.8299878448        1.9661825185
 O        -7.4034762858        4.1937952519        1.7519674107
 C        -5.2054920676        4.7675182127        0.9532591970
 C        -5.8896927934        5.4975168665       -0.3059094650
 O        -6.7402344510        4.8946689587       -0.9157026827
 C        -5.1248737988        6.6938831683       -0.9666959939
 C        -5.5726232595        7.1233206366       -2.3627956516
 C        -7.0380382237        7.6525417377       -2.3433120190
 O        -7.4525411080        8.2352208084       -1.3668276784
 C        -7.9493639077        7.6939176872       -3.7156037963
 C        -8.5941394331        6.3508027917       -3.6632075816
 O        -7.8742160740        5.3599620780       -3.8422129273
 C       -10.0413195865        6.2537913392       -3.4424677078
 C       -10.4801354455        4.8622559894       -3.9763404772
 C        -9.9091650397        3.7458778815       -2.8694924863
 O        -9.6636370635        4.2092742422       -1.8052638698
 C        -9.8859171202        2.3186634237       -3.3111403773
 C        -8.3111074619        1.9793905721       -3.2898314782
 O        -7.7033385680        2.3303810063       -2.3464921013
 C        -7.6716654283        1.2078150316       -4.4420314005
 C       -10.5444731637        1.2962975991       -2.3347865850
 C       -10.4427348533        2.1868328599       -4.7330119296
 C        -8.9682220752        8.8514019717       -3.6093071827
 C        -7.0721034494        7.9964836914       -4.9693712444
 C        -4.0107689826        5.5186419135        1.3844124331
 C        -4.8276883768        3.3898312546        0.4702794855
 C        -9.3565698134        4.7540070700        6.4813266039
 C        -8.2112577927        2.5178528595        6.1680904921
 C       -11.5859065152       -0.5424762549        2.6359488346
 C       -10.1795610490       -1.2997206501        0.6071114460
 C       -16.9774635131        2.4959320692       -1.8199206179
 C       -15.5965682859        4.6698302374       -2.1859257285
 H       -17.8646421123        4.4351313917        0.2667416390
 H       -16.6177839972        5.6166494882        0.2321726355
 H       -16.8846182160        4.5601401009        1.6674006354
 H       -14.1070220711        0.1662656030       -1.2202721126
 H       -15.2275821954        0.9876341691       -0.0927380607
 H       -13.3611410105        1.4829277896        1.2739713494
 H       -12.5218917274        2.1662844911       -0.1273214397
 H       -11.4351208381        2.3183043788        2.4562026827
 H       -10.0200963829        3.1628041839        1.4673463756
 H        -8.4466701556        2.3359678197        3.1085236603
 H        -9.7256861254        1.4806287985        3.8937504725
 H        -7.2665382982        6.6372239579        4.7466309548
 H        -8.3374636298        5.8382546010        3.5455891898
 H        -5.2309946331        6.0365260512        3.4303004120
 H        -6.3666318345        6.9259201649        2.5587024295
 H        -4.0810542259        6.4479872766       -0.9753974778
 H        -5.2926251994        7.5378777365       -0.3094032459
 H        -5.5053620795        6.3012145978       -3.1447639475
 H        -4.9335990303        7.9704386101       -2.6705536190
 H       -10.7019198196        6.9697572162       -4.0004750075
 H       -10.3144123390        6.2951450943       -2.3672481684
 H       -10.0756531782        4.6925155567       -4.9408810448
 H       -11.5577032367        4.7699267804       -4.0262013372
 H        -6.8609461075        1.8184143807       -4.8554932186
 H        -8.3094938741        0.9361510954       -5.3089456853
 H        -7.1942349542        0.2684938783       -4.1277448482
 H       -10.4955890611        1.6271350389       -1.2488168409
 H       -10.1113017673        0.3174342495       -2.4948116854
 H       -11.5732508586        1.3939789432       -2.6051684247
 H       -10.3810408354        1.1893775257       -5.1118590930
 H        -9.8990630534        2.7642240332       -5.4406708131
 H       -11.5130841647        2.4843309947       -4.7952542720
 H        -8.4121843440        9.8436060995       -3.6468878351
 H        -9.5893381290        8.8963896658       -2.7155714140
 H        -9.6896481532        8.7841814526       -4.4924056860
 H        -7.7601981980        7.8190867588       -5.7815690140
 H        -6.3104519584        7.3348287161       -5.1541729527
 H        -6.7111021489        9.0229407807       -5.1118771992
 H        -4.3236987506        6.5218312141        1.8049435626
 H        -3.2346978017        5.6685660627        0.6952008194
 H        -3.6199023051        4.9404469896        2.2675444849
 H        -3.9597134576        3.2421268297       -0.1580913180
 H        -5.6478126522        2.9837602633       -0.0535987018
 H        -4.6670819934        2.6489864362        1.2544589941
 H       -10.4583762363        4.5774879619        6.5080652318
 H        -9.2986325591        5.8790062596        6.1971831315
 H        -8.9756676439        4.7138350367        7.5479149589
 H        -8.0921453095        1.7088533157        5.5159068093
 H        -8.8835728165        2.0968163730        6.9513269926
 H        -7.1973524744        2.6873339340        6.5548977605
 H       -10.7731977373       -0.5550084228        3.3855863162
 H       -12.1904663202       -1.4506617690        2.7427943151
 H       -12.3583749067        0.2482620729        2.8895452128
 H        -9.5936618185       -1.0007239567       -0.2368345270
 H       -10.7060099134       -2.1953749021        0.2343795416
 H        -9.3420215662       -1.6340025894        1.2927144535
 H       -16.8860453344        2.2818217714       -2.8453127728
 H       -17.8904619692        3.0695899171       -1.6276973268
 H       -17.1515612101        1.6334870202       -1.2407288574
 H       -14.8392067444        4.5075288294       -3.0085859392
 H       -15.2748830059        5.5332625923       -1.5568204539
 H       -16.6177709562        4.9844139118       -2.6125642755
 Na       -8.1479076923        3.0993929266       -0.2892108649
