117

 C       -17.1398103191        5.0377189282        0.5303044704
 C       -15.9943067218        3.9923147718        0.2362449887
 O       -15.2609075308        3.6776557658        1.1265542531
 C       -15.8153706351        3.3201892459       -1.2144138198
 C       -14.5364899033        2.4551897241       -1.4073388269
 O       -13.6898137965        2.6490194985       -2.2530049593
 C       -14.4102139990        1.1737494975       -0.5270384499
 C       -13.1541306394        1.1760871830        0.4161873573
 C       -12.2587869430       -0.0612885424        0.3808770939
 O       -12.1226839438       -0.8773832745       -0.5046440789
 C       -11.1357640780       -0.1727302116        1.5680370928
 C       -10.2153530289        1.0477918038        1.3871536414
 O        -9.2669947262        1.1699011399        0.6369201498
 C       -10.5407801159        2.2652312708        2.2892176436
 C        -9.6842214986        2.3468555792        3.5156698906
 C        -9.7815166218        3.7872994471        4.1507966221
 O       -10.5489230186        4.5963893213        3.7075363716
 C        -8.7950807587        4.0008101678        5.3419210303
 C        -7.4614732149        4.4971643551        4.6476765149
 O        -6.4240215542        3.8318257763        4.7474858491
 C        -7.6449985263        5.7809331800        3.8143415298
 C        -6.4502361422        6.0338402911        2.9685125651
 C        -6.2193666651        4.8560575402        2.0169350451
 O        -7.0047375663        3.9462372375        1.9863766225
 C        -5.0102620491        4.8202736110        0.9325541351
 C        -5.6581168023        5.4140303819       -0.3739276448
 O        -6.7393653643        4.9620337152       -0.8321481738
 C        -5.0422945759        6.5970863432       -1.0946902486
 C        -5.6826972720        6.8456704827       -2.4226964879
 C        -6.9324332633        7.7457481437       -2.4541276912
 O        -7.2600369407        8.4445952730       -1.5334236106
 C        -7.7806376789        7.7842367100       -3.8479967765
 C        -8.5500884630        6.3012340824       -4.0306635862
 O        -7.8615901739        5.3650388601       -4.4068176389
 C       -10.0100294301        6.1287614085       -3.6227403464
 C       -10.6208893411        4.7340182517       -3.7573519875
 C        -9.8515847027        3.6889519833       -2.7446978385
 O        -9.5279430856        4.0260067149       -1.6561236169
 C        -9.7265341006        2.2262431149       -3.3033520259
 C        -8.1788210366        1.8477216963       -3.2750760842
 O        -7.5578603250        1.8433806224       -2.2389489833
 C        -7.5000706280        1.3656722058       -4.5640349954
 C       -10.3350567737        1.1947813160       -2.3120949274
 C       -10.4336939999        2.0294932061       -4.7257305279
 C        -8.8132386558        8.9628834348       -3.8306996905
 C        -6.7886692643        7.9099039879       -5.0132223099
 C        -3.7397600662        5.6352873863        1.3531938965
 C        -4.7493779473        3.2627646486        0.6014934854
 C        -9.3346196265        5.1590982091        6.2327714540
 C        -8.5654490763        2.7535626127        6.1857002587
 C       -11.8370732470       -0.3608770768        2.9815957985
 C       -10.2426648116       -1.3961852289        1.2833644407
 C       -17.0106865637        2.4757914452       -1.4841704581
 C       -15.8738335774        4.4504000795       -2.2985273368
 H       -17.5076449569        5.5629238462       -0.2899854972
 H       -16.7907021054        5.8416452425        1.2436195021
 H       -17.9677994830        4.5046338664        0.9409618628
 H       -14.3863030409        0.2903187537       -1.1967119653
 H       -15.2649586987        0.8731871381        0.1371362094
 H       -13.5049808404        1.3998767135        1.4549879373
 H       -12.5084360130        2.0169622537        0.1107879816
 H       -11.6624875853        2.3098328331        2.6036026515
 H       -10.3634396802        3.1794316402        1.7515308165
 H        -8.6528770140        2.3391029558        3.1252606646
 H        -9.8657767031        1.4565172144        4.1399521604
 H        -7.7680050559        6.6085200277        4.4938496553
 H        -8.5153276452        5.7081541284        3.2062608814
 H        -5.5443993567        6.2076262735        3.5934659262
 H        -6.4817753052        6.9188730054        2.3617056034
 H        -3.9779545892        6.5599291041       -1.1688524211
 H        -5.3576227183        7.4206722435       -0.4702470327
 H        -6.0542772234        5.8707730928       -2.8245672664
 H        -4.9587832585        7.2663169084       -3.0898447184
 H       -10.6633600984        6.6341960884       -4.3253550307
 H       -10.1480028107        6.4711234198       -2.6015816757
 H       -10.4768764073        4.3985999292       -4.7111206728
 H       -11.6672884729        4.6775593346       -3.4514570277
 H        -6.8978790871        2.2026300216       -4.9338376082
 H        -8.1554745540        1.0250551520       -5.3279247448
 H        -6.7277261997        0.5736963914       -4.4483866063
 H        -9.6572828991        1.1474160388       -1.3797890297
 H       -10.2270352772        0.1702842465       -2.7176065496
 H       -11.4034064240        1.4919082816       -2.0625700440
 H       -10.1054200780        1.0445511013       -5.0261964300
 H       -10.0155965980        2.6121980318       -5.5107193568
 H       -11.5435070042        2.1346075065       -4.8418925119
 H        -8.3345202000        9.8486834561       -3.4671379003
 H        -9.5534594455        8.8132099044       -3.1118180140
 H        -9.3562905715        9.2557972997       -4.7501586985
 H        -7.2209311344        8.2581257492       -5.9407215649
 H        -6.3219898846        6.9752844564       -5.2369846055
 H        -6.0151489187        8.6406999528       -4.8238081638
 H        -3.9667218813        6.6663049174        1.6419667211
 H        -3.1413264305        5.6614555669        0.4607246263
 H        -3.2566611435        5.1335570535        2.1698554765
 H        -4.2296319673        3.1883389005       -0.4002085193
 H        -5.6732580226        2.7409051225        0.3556068291
 H        -4.1487313845        2.6276431555        1.2742808563
 H        -9.8954218807        4.8165954609        7.0618088528
 H       -10.0569534855        5.7526613990        5.6561871852
 H        -8.6622590434        5.7714728566        6.7857681569
 H        -7.6712919121        2.2284703396        5.8729999489
 H        -9.3400876541        1.9750350801        6.2664078997
 H        -8.4043147744        3.1282555429        7.1903144072
 H       -11.1811905323       -0.4478964345        3.8220619120
 H       -12.3287368493       -1.3401195801        3.0179473225
 H       -12.5810879635        0.3889850575        3.3219767766
 H        -9.8423733254       -1.4982923596        0.3165292719
 H       -10.8054340459       -2.3184693192        1.3817437067
 H        -9.4117303222       -1.4735596000        2.0217201104
 H       -17.0406825112        2.0605643614       -2.4858155247
 H       -17.9574424026        3.0559872614       -1.3605185325
 H       -17.0292457559        1.6903044633       -0.6884677897
 H       -16.2054421792        4.0286969752       -3.2515790901
 H       -14.8790759796        4.8993467213       -2.3223861686
 H       -16.6395662979        5.1677662397       -1.9492084728
 Na       -7.9705598212        3.1301812676       -0.2995549461
