117

 C       -17.1410922894        4.9337171617        0.4866412586
 C       -15.9296943904        4.1009237901        0.2130856076
 O       -15.1641510770        3.8073338148        1.0932238951
 C       -15.9060356234        3.4014536284       -1.1871277999
 C       -14.6260535716        2.4462934012       -1.3229979974
 O       -13.7390581711        2.6823995016       -2.1160010770
 C       -14.3983369273        1.0642893830       -0.5112967200
 C       -13.1151540356        1.2320831387        0.3807529445
 C       -12.2045576596       -0.0763468419        0.3983946919
 O       -12.2248849300       -0.7538521397       -0.5619867964
 C       -11.1532721351       -0.2443843747        1.6747952847
 C       -10.2480279783        1.0451928490        1.4569582915
 O        -9.3073608474        1.0101699466        0.6641276123
 C       -10.6203938043        2.3521740289        2.1881193531
 C        -9.7433376934        2.3949428306        3.4896012826
 C        -9.7781344794        3.7364102898        4.1741156132
 O       -10.5440813538        4.6355775378        3.7853691537
 C        -8.8014078745        4.0808003083        5.3724545773
 C        -7.4971998666        4.4698655002        4.6581425179
 O        -6.4815104453        3.8153122188        4.6975225856
 C        -7.6233374001        5.7581246584        3.8765869371
 C        -6.4478804066        6.0379212166        2.9389067031
 C        -6.2313689138        4.8151994279        1.9298432389
 O        -7.1021782974        3.9604089703        1.9280470841
 C        -5.0582672098        4.7904152243        0.8839672978
 C        -5.6652927500        5.4454577035       -0.3810301738
 O        -6.6694498924        4.8717925839       -0.7981119603
 C        -5.0074239670        6.5812737281       -1.1473059372
 C        -5.6530725178        6.7987737357       -2.5261609086
 C        -6.9011193584        7.7672145652       -2.5707789640
 O        -7.2559234601        8.3821249669       -1.5994263353
 C        -7.7127752537        7.7006020600       -3.8771593452
 C        -8.4940109719        6.3297510365       -3.9550154889
 O        -8.0348717167        5.3622671385       -4.5025088850
 C        -9.9816859850        6.1808094420       -3.4453877701
 C       -10.4359956796        4.7657410048       -3.7808374698
 C        -9.8722548561        3.6901247544       -2.8025066191
 O        -9.4796529738        4.1109981101       -1.7261408807
 C        -9.6265971669        2.1639653928       -3.2793175794
 C        -8.1577611777        1.8636641797       -3.2942877808
 O        -7.5344430482        1.7051678731       -2.1718111812
 C        -7.4671309739        1.4746446330       -4.5513672507
 C       -10.3003417619        1.0932918005       -2.4143904283
 C       -10.3102038272        2.0396841040       -4.6174187715
 C        -8.7375207094        8.8187711433       -3.9070060017
 C        -6.7211607322        7.9834060532       -5.0472451218
 C        -3.8076357539        5.5957253482        1.3261462393
 C        -4.5577811426        3.3790352318        0.5699257214
 C        -9.2187445305        5.3855718486        6.1967963808
 C        -8.6862797719        2.8911132474        6.3114119025
 C       -11.7730745134       -0.3327842718        3.0040331469
 C       -10.2877692815       -1.4926369935        1.4815734891
 C       -17.2537218117        2.5232181898       -1.2909511291
 C       -15.8224323175        4.4056629775       -2.4952159129
 H       -17.4425935668        5.5295578056       -0.3853960769
 H       -16.9260009508        5.6479534058        1.2644686978
 H       -17.9576778076        4.3245331798        0.7467134599
 H       -14.3255922868        0.1870811264       -1.2291515272
 H       -15.2117547807        0.6752697784        0.1736791269
 H       -13.4456259227        1.6102711359        1.3469239748
 H       -12.5560792399        2.0296583164       -0.0728491828
 H       -11.6657855330        2.3554614853        2.5148444944
 H       -10.5543518696        3.2816050552        1.5791704810
 H        -8.7683304132        2.0851735459        3.3415145900
 H       -10.2932208574        1.6724299262        4.1488658671
 H        -7.8695968931        6.6258758353        4.5008793544
 H        -8.5027354534        5.5936379622        3.2379193438
 H        -5.5612556635        6.3623063658        3.4635805783
 H        -6.6324755334        6.8521917916        2.1928574312
 H        -3.9616074209        6.2704330212       -1.3120529336
 H        -5.0389888912        7.4766060794       -0.5957775367
 H        -5.9532001337        5.7968952441       -2.9444124455
 H        -4.8625045484        7.2766910244       -3.1550436472
 H       -10.6488664931        6.7030983753       -4.0999963212
 H       -10.2909405033        6.3158349474       -2.3543380352
 H       -10.0688910676        4.4299159669       -4.7242454920
 H       -11.4988846320        4.6263040686       -3.6427480824
 H        -7.1253006854        2.3394277085       -5.1507434036
 H        -8.1744866286        0.8767250401       -5.1054864362
 H        -6.5358300694        0.8561708247       -4.4778032836
 H        -9.9267263415        1.1300020845       -1.4403364099
 H        -9.9181743503        0.0924459943       -2.7606351768
 H       -11.4373323111        1.1689734145       -2.4796243381
 H       -10.3928283153        0.9912079908       -4.9544817034
 H        -9.8650677196        2.5851422101       -5.4345187108
 H       -11.2934610873        2.4503950391       -4.5310246130
 H        -8.2447684437        9.7502231534       -3.6384908841
 H        -9.5551954021        8.7431122379       -3.1198564538
 H        -9.2783086348        9.0497669645       -4.8560832607
 H        -7.3253623244        8.2737898651       -5.8651796250
 H        -6.1746304994        7.0948554277       -5.4166616379
 H        -6.0705603233        8.7531809740       -4.9232795549
 H        -4.0950633924        6.5959383556        1.5756098637
 H        -3.1906002957        5.6443915713        0.3443965727
 H        -3.2797801836        5.1087865586        2.1244914955
 H        -4.0382701908        3.3957441986       -0.4099873024
 H        -5.2664619388        2.5462873825        0.4298427389
 H        -3.8230969540        3.0809098737        1.2811693079
 H        -9.8955224486        5.2634287814        7.0928278637
 H        -9.7240850089        6.1446764597        5.5853439383
 H        -8.3990487945        5.8211284229        6.8138845032
 H        -8.0315969841        2.0246836490        5.9739617770
 H        -9.6428111389        2.4535611654        6.4984436607
 H        -8.4354675531        3.2388415983        7.2832832644
 H       -11.1423195805       -0.0343045587        3.8430871934
 H       -11.9472317225       -1.4075724731        3.2907002174
 H       -12.6811595868        0.2361724644        3.2289236124
 H        -9.8277098803       -1.6313763135        0.4545424935
 H       -10.7917382675       -2.4556193757        1.6508354092
 H        -9.4752415745       -1.4974183077        2.2202992525
 H       -17.4001583567        2.0745160718       -2.2639210987
 H       -18.0692128069        3.1890030735       -1.2178781261
 H       -17.3331348851        1.7636068898       -0.4757657983
 H       -16.0165283593        3.7901994647       -3.4122168402
 H       -14.7594958980        4.8189501607       -2.4439085948
 H       -16.6295658259        5.1707778953       -2.4098377839
 Na       -8.0898378858        2.9901020357       -0.2478147756
