117

 C       -17.0076089422        5.0784707786        0.5402765717
 C       -15.8294861639        4.1545417100        0.1291360290
 O       -14.7661655892        4.1608269512        0.6775054893
 C       -16.0026365016        3.2198742690       -1.2077470966
 C       -14.6995181439        2.3678027999       -1.1871981972
 O       -13.7136753377        2.7382572631       -1.7624053876
 C       -14.5930806672        1.1411687248       -0.2675660211
 C       -13.1802773935        1.3263553802        0.4833202958
 C       -12.3067142631        0.0317809822        0.5101683460
 O       -12.3424738135       -0.7992056251       -0.3224744252
 C       -11.2852434611       -0.1047277078        1.7203650788
 C       -10.3071409558        1.0867660661        1.6026697879
 O        -9.3407465728        0.9227585443        0.9022322418
 C       -10.4757725416        2.4612410217        2.3749050837
 C        -9.7640953564        2.5735633327        3.6970993876
 C        -9.8865596666        3.9666140353        4.2954145701
 O       -10.7639572587        4.7082218535        3.8551963331
 C        -8.9021973911        4.3971925976        5.4649317243
 C        -7.5729343442        4.5707191893        4.7012748782
 O        -6.7456386723        3.6544794864        4.7057092391
 C        -7.4761108163        5.8405837749        3.8239605655
 C        -6.2235105199        5.7106074305        2.9161857066
 C        -6.2682979761        4.7106028469        1.7239135048
 O        -7.2542049008        4.0172690403        1.6097094006
 C        -5.0704675827        4.7714313613        0.7710542986
 C        -5.6735951394        5.2926265571       -0.6581295478
 O        -6.6301731734        4.6228053873       -1.0973288499
 C        -4.9934042595        6.4621523824       -1.4021844564
 C        -5.5621618069        6.7103541633       -2.7563062094
 C        -6.7786557368        7.6017342806       -2.7102286755
 O        -7.1899244290        8.0523122306       -1.6759128880
 C        -7.5990244781        7.6959051996       -3.9999888983
 C        -8.3785310396        6.2566324621       -4.1022123349
 O        -7.8349186897        5.4219899111       -4.7600681721
 C        -9.7472311094        6.0648324571       -3.3242723411
 C       -10.4605655874        4.7621379388       -3.5506647190
 C        -9.6771138688        3.6035431432       -2.7800527592
 O        -9.4118073108        3.7590784066       -1.5777059202
 C        -9.6181836782        2.2116250803       -3.3685263202
 C        -8.0070276706        1.8502544463       -3.2441719282
 O        -7.5061487646        1.8103529752       -2.0980038269
 C        -7.1260964092        1.7393414724       -4.4908179692
 C       -10.4569605812        1.3536734641       -2.3810992505
 C       -10.0776307543        1.9591321840       -4.8168737601
 C        -8.5789358187        8.8554373355       -3.8720966317
 C        -6.8227714724        7.8687764723       -5.3131874347
 C        -3.9551052283        5.7996534052        1.1426661009
 C        -4.4918846484        3.3654404645        0.5792102730
 C        -9.4714248825        5.6648874506        6.1848516043
 C        -8.6778186865        3.2002961031        6.4395568304
 C       -12.1506795738       -0.1501935859        2.9551824402
 C       -10.5740229244       -1.4448397487        1.4966062086
 C       -17.1792530466        2.2154983209       -1.1945197430
 C       -16.1144354406        4.2137269852       -2.3819227793
 H       -17.4597614676        5.6317728979       -0.2796333784
 H       -16.7097236772        5.7846487726        1.3784927634
 H       -17.7883843816        4.4248056837        0.9127104924
 H       -14.6063175346        0.2237734351       -0.7935324725
 H       -15.4173197095        1.0633330614        0.4319725042
 H       -13.3847212523        1.6577724400        1.5371554713
 H       -12.7001019693        2.2187932568        0.0417037602
 H       -11.5883204098        2.6824797858        2.5555102272
 H       -10.3405752447        3.3055237326        1.7595348645
 H        -8.7112585498        2.3038694498        3.5456246284
 H       -10.2749558753        1.8020858093        4.3400637304
 H        -7.3647772852        6.7591187071        4.3999184053
 H        -8.3853448586        6.0214693874        3.2765538555
 H        -5.3938794648        5.3943562166        3.5974881741
 H        -5.9596981561        6.6724529434        2.5122937769
 H        -3.9223866832        6.2176739172       -1.4772254411
 H        -5.1220812062        7.3447177667       -0.7482143785
 H        -5.8319138975        5.7378216111       -3.1931343866
 H        -4.8336789931        7.1515418204       -3.3784082670
 H       -10.4881705701        6.7860679813       -3.6122416927
 H        -9.5603683026        6.1543805597       -2.2600034108
 H       -10.5248499846        4.5328003949       -4.5559619255
 H       -11.4462468415        4.7430192562       -3.0172644925
 H        -7.4120054860        2.4343830861       -5.2669481718
 H        -7.0888725678        0.7768195419       -4.8956714318
 H        -6.0857322608        2.0312822065       -4.2156573008
 H       -10.0527294535        1.5203174505       -1.4171305975
 H       -10.5576147344        0.2742028619       -2.6002456120
 H       -11.5371443723        1.6828289647       -2.5035272168
 H        -9.7036550560        0.9735613135       -5.1296001744
 H        -9.7573317868        2.7614843790       -5.4482700365
 H       -11.1822978301        1.8452157958       -4.9663930973
 H        -8.2532589362        9.7487708997       -4.3114920240
 H        -8.8556627542        9.0570500081       -2.8711637261
 H        -9.5360934062        8.7184413977       -4.3649838290
 H        -7.5774408383        7.8823326696       -6.1421753524
 H        -6.0890948900        7.0463834226       -5.5905767851
 H        -6.3075515760        8.8088376689       -5.3921269859
 H        -4.4788685324        6.7197069820        1.2207279617
 H        -3.1270373651        5.8337567714        0.3877269275
 H        -3.5010438325        5.5132274092        2.0564138961
 H        -3.5270450111        3.3709485571        0.0239528327
 H        -5.1489998027        2.6869590495        0.0100739684
 H        -4.3793529640        2.8695179924        1.5376740223
 H       -10.4602824106        5.4494124419        6.4747660353
 H        -9.6042965070        6.4548467684        5.4876611914
 H        -9.0631208297        6.0734790736        7.0610092086
 H        -8.6468209706        2.1858931226        5.9857442788
 H        -9.3097808840        3.2733749656        7.3176550621
 H        -7.7177668847        3.3378004996        6.9060954430
 H       -11.7336870168       -0.5302111187        3.8157644439
 H       -13.0156335689       -0.7997298606        2.8280710658
 H       -12.4750427665        0.8109067357        3.3078114144
 H        -9.9651896020       -1.3653364752        0.6250951194
 H       -11.2975817903       -2.2053223992        1.3244949143
 H        -9.9543076400       -1.8527092025        2.2880652463
 H       -16.9881405377        1.3987454062       -1.8871670156
 H       -18.0087940996        2.7358977503       -1.6636013615
 H       -17.3954449616        1.6520073324       -0.2591824817
 H       -15.9443499745        3.6861228346       -3.2698165849
 H       -15.3642953065        4.9485665698       -2.2225760204
 H       -17.1154430538        4.5419521278       -2.3787829007
 Na       -8.0562600945        2.6314341890       -0.1347695902
