117

 C       -16.9533149656        5.0317478938        0.5839245542
 C       -15.8468183565        4.1588495850        0.0637055172
 O       -14.7376847456        4.2510527782        0.5956894667
 C       -16.0036239281        3.2198381210       -1.1735853435
 C       -14.6692580305        2.4624023410       -1.1610592161
 O       -13.6970189383        2.7641328477       -1.8651774408
 C       -14.5492213085        1.2181679065       -0.2203040982
 C       -13.2511482571        1.3391221972        0.5963704255
 C       -12.4003249358        0.0942304729        0.5582376258
 O       -12.5434607112       -0.7383102249       -0.3293106875
 C       -11.3430811169       -0.0869743204        1.7259485387
 C       -10.3378535320        1.0524779951        1.6970915389
 O        -9.2913481572        1.0133986672        1.0181689553
 C       -10.5456329107        2.4540034370        2.3440597945
 C        -9.7818913634        2.5087589993        3.6925602021
 C        -9.9999598371        3.8656677386        4.3784547472
 O       -10.7561407782        4.7091279043        3.9115883613
 C        -9.0335731078        4.3752585223        5.5219140901
 C        -7.6752676440        4.6090711187        4.6992461144
 O        -6.8658183736        3.7476356336        4.6905606876
 C        -7.4366987621        5.7915763848        3.7638698681
 C        -6.0344894329        5.7375897535        2.9764936636
 C        -6.2961582315        4.7819305428        1.7338315968
 O        -7.2817865852        4.0751503570        1.6897949744
 C        -5.1272328092        4.8077104165        0.6768774412
 C        -5.6814229124        5.1466550785       -0.7324339804
 O        -6.5363406135        4.5666535742       -1.3138082729
 C        -4.9469990318        6.2951427239       -1.4483265893
 C        -5.4679778605        6.6061964875       -2.8518016109
 C        -6.8219443871        7.4859996732       -2.7884695443
 O        -7.1592962671        7.9616297050       -1.7202550387
 C        -7.6833391522        7.6562069741       -4.1020006296
 C        -8.3496940908        6.3158094257       -4.1690740770
 O        -7.9707757504        5.2894090790       -4.7110978668
 C        -9.6443991814        6.1952500154       -3.3386103618
 C       -10.3440705227        4.8429529254       -3.5178103902
 C        -9.7726826839        3.6348559596       -2.7069253598
 O        -9.4333924187        3.8783074586       -1.5770330089
 C        -9.5166259194        2.1077836168       -3.3520086644
 C        -8.0096252983        1.8496088553       -3.2175655563
 O        -7.3950222787        1.7389116687       -2.1029935628
 C        -7.1330537560        1.8295588351       -4.3958010407
 C       -10.4159371217        1.1528513480       -2.4966765879
 C        -9.9877133487        1.9896545588       -4.8126109073
 C        -8.6660195421        8.8454027743       -3.9317751168
 C        -6.7995368173        7.9481650419       -5.3676204682
 C        -3.8413719318        5.7284243819        1.0181535936
 C        -4.5855979708        3.3833701699        0.6052844853
 C        -9.5047776141        5.6944644391        6.1386954890
 C        -8.7666386800        3.2885532571        6.5964559753
 C       -12.2126137988       -0.1117124690        3.0855442720
 C       -10.5947973796       -1.4400351875        1.6523960952
 C       -17.1076468812        2.1240137153       -1.0977059906
 C       -16.1992700297        4.1534714611       -2.4223274480
 H       -17.3717758298        5.6221233450       -0.2837183873
 H       -16.5566768836        5.6797749504        1.2895741553
 H       -17.7796986876        4.4929695467        1.0206149472
 H       -14.4816329510        0.2652518549       -0.8315734449
 H       -15.4008367713        1.0541649644        0.4741722111
 H       -13.4451538250        1.7736217304        1.5921838990
 H       -12.6699827192        2.1414685419        0.1048989346
 H       -11.5335878978        2.8399159464        2.3766244987
 H       -10.1826430320        3.2733693803        1.6653726724
 H        -8.7535836500        2.4692309234        3.4141078352
 H       -10.0328936534        1.5850091558        4.3051250387
 H        -7.5590473240        6.7379313252        4.2473879908
 H        -8.2088587342        5.8816236187        3.0174766934
 H        -5.2495231636        5.2767972948        3.5434467704
 H        -5.7515287766        6.7672238677        2.6800721602
 H        -3.8833687541        6.0499755673       -1.5095155629
 H        -5.0237107284        7.1460759771       -0.8395126815
 H        -5.6105074036        5.6587676362       -3.3814876024
 H        -4.6639626213        7.1549557466       -3.3691792532
 H       -10.4781528042        6.8014136326       -3.6023420900
 H        -9.3612293292        6.4276873710       -2.2761060956
 H       -10.3101153604        4.6062535946       -4.5710211233
 H       -11.3263519230        4.9565782883       -3.1769202612
 H        -7.3732113588        2.5456837147       -5.1862709518
 H        -7.1585634343        0.8266440433       -4.8377778429
 H        -6.1213135088        2.0159187010       -4.0731110840
 H        -9.8764797221        0.8480880319       -1.5939725963
 H       -10.8765340338        0.2658342340       -3.0904279972
 H       -11.3985518978        1.6761152637       -2.2959648325
 H        -9.6771999106        1.0628608338       -5.3174401334
 H        -9.7356713870        2.9131446761       -5.3606062823
 H       -11.0451966684        1.8896795942       -4.8315606170
 H        -8.0237821395        9.6619009330       -4.1238298667
 H        -8.9890080043        9.0322969601       -2.9004510786
 H        -9.5013168332        9.0408717882       -4.4861925959
 H        -7.4688072225        8.0629524710       -6.2098563164
 H        -6.1169165184        7.1128742368       -5.6517191284
 H        -6.2168447114        8.8388919093       -5.3129860688
 H        -4.2383637166        6.6843867578        1.2007412453
 H        -3.0401551907        5.7302208383        0.2421805145
 H        -3.3836537818        5.2792823127        1.8645096664
 H        -3.5908942338        3.4197452068        0.1233598666
 H        -5.1762268291        2.6277315124        0.0062027560
 H        -4.5168219794        2.9262552564        1.5953283111
 H       -10.5047324183        5.7003558827        6.5801910385
 H        -9.5416683243        6.4526712137        5.4169973365
 H        -8.8676268168        6.1307742979        6.9011089706
 H        -8.4653988020        2.3273035289        6.0801509158
 H        -9.5355644849        3.1772845150        7.3198512090
 H        -7.8987079168        3.5329338209        7.2078168928
 H       -11.8887773035       -0.8396679689        3.8229516237
 H       -13.2169098206       -0.4862707639        2.9110849191
 H       -12.2777584095        0.7445626641        3.6935517558
 H        -9.8857649870       -1.3585956756        0.7956376843
 H       -11.2421229378       -2.2918165619        1.5234595680
 H       -10.0262528639       -1.7010230087        2.4930923894
 H       -16.9063846699        1.3666666875       -1.8860689152
 H       -18.0403629665        2.5738498323       -1.3832269728
 H       -17.1397257337        1.4687420418       -0.1958869838
 H       -16.1416276593        3.4729146423       -3.2511161623
 H       -15.3871049888        4.8661449184       -2.4379998638
 H       -17.1902288948        4.5151056274       -2.3448219108
 Na       -7.8935727905        2.6724850172       -0.1555332378
