117

 C       -12.1859936103       10.2876025157       -3.6276202731
 C       -11.2814750656        9.1864505970       -4.1596922060
 O       -11.1891638960        8.1134147717       -3.4551287994
 C       -10.4497277726        9.3326255453       -5.4006796736
 C        -8.9455839932        9.8274117324       -4.9830420709
 O        -8.4984160942       10.8113987068       -5.5105222647
 C        -8.2486576688        8.9869307236       -3.8904544611
 C        -7.4175283807        9.8871264469       -2.8851015962
 C        -7.1774088761        8.9777342343       -1.6533970704
 O        -6.5355115222        7.9691587331       -1.8346618959
 C        -7.6042561678        9.2711620966       -0.1558334286
 C        -8.7653629905        8.1724041810        0.0298893102
 O        -9.9131744508        8.6444380144       -0.0884743454
 C        -8.5460861117        6.6842115595       -0.0102332045
 C        -9.4991180399        5.9787701924       -0.9538361750
 C        -9.4290001492        4.4887289451       -0.9460705169
 O        -8.6963697813        3.8677479634       -0.1601465896
 C       -10.4641337694        3.6841843112       -1.8545087513
 C       -11.5163279456        2.9365898437       -0.8455541911
 O       -11.2160897788        1.8536273158       -0.4988815978
 C       -12.9655717931        3.5720468322       -0.6543878327
 C       -13.2611309642        3.7256402345        0.8811333799
 C       -12.0624967999        3.8910479184        1.7456316006
 O       -11.0101577696        4.2043619358        1.2799172414
 C       -12.0841082699        3.5043427692        3.2942891023
 C       -11.4500619317        2.0469198471        3.4735875723
 O       -10.4817202021        1.7439191773        2.8148107673
 C       -12.0280033152        0.9934819488        4.4693168941
 C       -11.2428691835       -0.3258632988        4.4451759457
 C       -11.6980390508       -1.3036272338        3.2577158872
 O       -12.4349100726       -0.9720390353        2.3631735262
 C       -11.3167170161       -2.8166393537        3.3533545146
 C       -10.2456324607       -3.0450139468        2.1641817690
 O        -9.0545638809       -2.9988590349        2.5513240625
 C       -10.4367089376       -2.8614001683        0.6815269215
 C        -8.9845488694       -2.5184150760       -0.1020015097
 C        -8.4414414896       -1.1716893447        0.3122585359
 O        -9.2906191519       -0.3772719305        0.6598047490
 C        -6.8899501382       -0.8507035161        0.2488640541
 C        -6.4097318332        0.1294479237        1.4300748741
 O        -7.0491174182        1.0432979817        1.8450080177
 C        -5.0176871034       -0.2371118044        1.9657062696
 C        -5.8967273494       -2.0136117421        0.1046711900
 C        -6.5596006272        0.0505782878       -1.0451915116
 C       -10.7249953091       -3.1293126524        4.7803546353
 C       -12.6931588743       -3.6336460917        3.1718718007
 C       -10.9883410097        4.3771697614        4.0037747651
 C       -13.4661379781        3.6253213910        4.0813982657
 C       -11.3829104503        4.5012265750       -2.9324018040
 C        -9.8162435024        2.5132429234       -2.6115238165
 C        -6.5065170622        8.9084565210        0.8571446505
 C        -8.1547214193       10.7220836736        0.0398226970
 C       -10.0806187517        7.9181871073       -5.9917421274
 C       -11.0351600985       10.1466638303       -6.6280688330
 H       -11.5334103474       11.2626462741       -3.4469252256
 H       -12.7109747671       10.0904554306       -2.6877575456
 H       -12.8852312036       10.5709184109       -4.4089349781
 H        -7.7028450719        8.1384614303       -4.2439590599
 H        -9.2268849255        8.5610565908       -3.3980924602
 H        -7.9309734439       10.8207656226       -2.7471189613
 H        -6.4186737183       10.0534961970       -3.3227266525
 H        -8.7316606033        6.3482002652        1.0308734335
 H        -7.5439566591        6.3963857405       -0.3235739551
 H        -9.2860815623        6.3966087658       -1.9983685395
 H       -10.5718466387        6.3118170841       -0.7408826152
 H       -13.5288972425        2.8069547623       -1.2047933327
 H       -13.0503817986        4.4745520475       -1.1995483421
 H       -13.7500374549        2.8503223756        1.3021960105
 H       -13.9877728350        4.5389760488        1.0258587646
 H       -13.0975468221        0.7631222068        4.2387531648
 H       -11.8949226615        1.4095369157        5.4541728462
 H       -11.3128109404       -0.8117066889        5.4562840231
 H       -10.1287633034       -0.2784683697        4.4694945780
 H       -11.0527121736       -1.9709913009        0.5411562521
 H       -10.9165992945       -3.6952997670        0.1674262811
 H        -9.2394208531       -2.3316300665       -1.1739228399
 H        -8.2534767954       -3.3295116761       -0.0490244278
 H        -4.8884703531       -1.1088022634        2.6140434476
 H        -4.7480909102        0.5449584421        2.6600990289
 H        -4.2638479686       -0.2093281296        1.1635540273
 H        -6.0924518035       -2.6991040756       -0.7710929356
 H        -5.9816754979       -2.6513122796        0.9988814061
 H        -4.9000554174       -1.6599301658       -0.0115028524
 H        -7.4707221117        0.4912064101       -1.5663382330
 H        -5.9380316743       -0.4515166509       -1.7820041055
 H        -6.0351547348        1.0171964996       -0.7665357990
 H       -11.1625411162       -2.5161892517        5.4938988078
 H        -9.6780444955       -3.1459197412        4.7934269289
 H       -11.1295564335       -4.0620082274        5.1117467543
 H       -13.3292773950       -3.2619613639        3.9478139143
 H       -12.6395624936       -4.7171099400        3.2034766658
 H       -13.1017013293       -3.2153847663        2.2623304376
 H       -11.2273184939        5.4008766021        4.1108529009
 H       -10.1200073694        4.1654750438        3.3998706368
 H       -10.6874898417        3.8841634770        4.9560505633
 H       -14.1281146190        4.3548083061        3.6814501853
 H       -13.2610589838        3.8105614884        5.0745354473
 H       -14.0363266586        2.6790433364        3.9056339661
 H       -11.9508712314        3.8891892044       -3.6485141409
 H       -10.7505226729        5.2246876400       -3.4256321723
 H       -12.0781394674        5.2357844309       -2.4783521924
 H        -8.8820864675        2.2073605016       -2.1128432216
 H        -9.4638314287        2.7433746234       -3.6182324058
 H       -10.4742412813        1.6071705738       -2.5526672469
 H        -5.7089612482        9.6840744417        0.8440668406
 H        -6.0740609179        7.9278594935        0.6789152006
 H        -6.9303328549        8.9839359252        1.8747910713
 H        -7.4771837623       11.3627314248        0.5900182982
 H        -8.9857174352       10.6982104673        0.7217535370
 H        -8.3888092371       11.1930435340       -0.9043636162
 H        -9.8308171745        7.2005981047       -5.2087002554
 H        -9.2459769558        7.9452742835       -6.7175572618
 H       -11.0063406396        7.6827762567       -6.5777730075
 H       -10.2771934836       10.4300346098       -7.4170694630
 H       -11.4220673435       11.1684876334       -6.4243114134
 H       -11.8741062637        9.6078531884       -7.0026657113
 Na       -9.0156026494        1.8879696672        0.9040754771
