117

 C       -17.0375181714        4.9919402558        0.5920898651
 C       -15.8321229623        4.1975366487        0.0678830925
 O       -14.7058874723        4.2932581819        0.5404747072
 C       -16.0280137220        3.1499035014       -1.1579693671
 C       -14.5765978200        2.4743958140       -1.2534527868
 O       -13.6990868040        2.8152872577       -2.0195361138
 C       -14.3637344740        1.3927375751       -0.2276726888
 C       -13.2146197025        1.4008288927        0.7008722805
 C       -12.4613725402        0.1166295230        0.6497718410
 O       -12.6489504994       -0.7116550278       -0.2495635448
 C       -11.3781750828       -0.0378622149        1.8007095650
 C       -10.3104985552        1.1428936772        1.6969909881
 O        -9.2939984566        0.9358649493        1.0462574363
 C       -10.6419129913        2.4681564093        2.4128169710
 C        -9.7896906095        2.5316705967        3.7701419596
 C       -10.0538875309        3.9289021508        4.3638680579
 O       -10.8746107862        4.6850152928        3.9529123526
 C        -9.0043953912        4.3939551323        5.4579048443
 C        -7.6809259731        4.5700741694        4.6484513888
 O        -6.8331433458        3.6806842776        4.7395807163
 C        -7.5083853853        5.8443749236        3.7868545552
 C        -6.1649230920        5.7427014802        3.0702106331
 C        -6.1812461185        4.9290013183        1.7860234072
 O        -7.1566003140        4.1820958557        1.6113617212
 C        -5.1075649053        4.7940590092        0.6073058091
 C        -5.6344863224        5.0671907392       -0.8853290402
 O        -6.4931640981        4.4045142329       -1.3887124881
 C        -4.8942850268        6.2452239649       -1.6699650197
 C        -5.5071286136        6.6075941365       -3.0361370773
 C        -6.7755895677        7.4190575522       -2.9042855706
 O        -7.1302307252        7.8427392989       -1.8233660069
 C        -7.6350510922        7.6790117743       -4.1372525562
 C        -8.4485510127        6.2612869383       -4.1837159622
 O        -7.9804224304        5.2676685738       -4.7381531625
 C        -9.7206745176        6.1551582572       -3.3030701199
 C       -10.3902855377        4.7557021245       -3.5669898084
 C        -9.7039928872        3.6890191555       -2.6799812435
 O        -9.4481696553        3.8964213463       -1.5292482646
 C        -9.4857585152        2.2692397488       -3.2638426237
 C        -7.9134534906        1.8951611241       -3.1432056172
 O        -7.4653076496        1.5956979345       -2.1020574518
 C        -7.1044387186        1.8930965687       -4.4716160592
 C       -10.2575951988        1.0247389138       -2.5207878102
 C        -9.8906375079        2.1491462298       -4.7660185860
 C        -8.6395530959        8.8274384630       -3.9460624869
 C        -6.7493587667        7.9013184961       -5.3908022342
 C        -3.8955754347        5.5680806841        1.0817764377
 C        -4.6681251608        3.2056273856        0.6181940998
 C        -9.5347701661        5.6607120066        6.0519091287
 C        -8.8772225520        3.4414654043        6.7063783065
 C       -12.1884918773       -0.0456826883        3.1972372486
 C       -10.6245251476       -1.3903547341        1.7286468054
 C       -17.2228050267        2.2255522911       -0.9894498298
 C       -16.2171393488        3.9931536087       -2.4527363581
 H       -17.4336067101        5.5128745558       -0.2518520760
 H       -16.7392378843        5.6745581837        1.3556136734
 H       -17.8454769201        4.3828683009        0.9898257484
 H       -14.3329805854        0.3589046110       -0.7568148656
 H       -15.2427302870        1.3063220729        0.4645977001
 H       -13.5744406397        1.7027982074        1.6570549278
 H       -12.4903507372        2.1847341707        0.4627098708
 H       -11.6621364198        2.5185978288        2.6066487297
 H       -10.6149346484        3.4178524950        1.8295781004
 H        -8.7358395533        2.2765446090        3.5800935200
 H       -10.1749245969        1.8032993300        4.4567585745
 H        -7.4192740819        6.7207733074        4.4458341830
 H        -8.3324953849        6.1914433825        3.1471051604
 H        -5.5211916797        5.1379648852        3.6911028412
 H        -5.7384742929        6.7556000587        2.9173515457
 H        -3.8804493463        5.9184365333       -1.8009850701
 H        -4.8224453487        7.1089720289       -1.0252424334
 H        -5.7238101357        5.7002490027       -3.6040567514
 H        -4.7076521745        7.1667626271       -3.6293470222
 H       -10.5885833969        6.8718115015       -3.3785505872
 H        -9.2811682990        6.2521466447       -2.2782680051
 H       -10.2765845260        4.4805766881       -4.6576243161
 H       -11.4209705663        4.7266267822       -3.2981784361
 H        -7.3749173711        2.7347635441       -5.1148011476
 H        -7.4141522229        0.9778600073       -5.0756235023
 H        -6.0418318822        1.8751986754       -4.3266320750
 H        -9.5041783402        0.4652433659       -1.8231635778
 H       -10.5679600617        0.4053545297       -3.3468434405
 H       -11.2263387302        1.1899588337       -2.0920073332
 H        -9.7320856504        1.1489537855       -5.1043442152
 H        -9.3590257812        2.8945327618       -5.3807416383
 H       -10.9442546785        2.2609640047       -4.9070649120
 H        -8.1329595081        9.8094013331       -3.7484302001
 H        -9.2967977910        8.7193915261       -3.0905218279
 H        -9.3236577927        9.1105372536       -4.7585163765
 H        -7.2418111046        8.1785906527       -6.2862014742
 H        -6.2200752583        7.0490254302       -5.5983149158
 H        -5.9884347700        8.6743704256       -5.1607457193
 H        -4.1162007097        6.6572851569        1.0673031476
 H        -3.0761193390        5.2946612310        0.5199367763
 H        -3.6884354491        5.1185138745        2.0833852853
 H        -3.8194818093        3.0075475110       -0.0361427978
 H        -5.4809977599        2.5392091441        0.2819452022
 H        -4.4593270875        2.8141569124        1.6472477291
 H       -10.4339603800        5.5885007125        6.6931907452
 H        -9.7271491188        6.5327344748        5.3857376019
 H        -8.7360404484        6.1355526481        6.6813602468
 H        -8.3291350817        2.6085081061        6.3908257957
 H        -9.8745372082        3.1583145380        7.0848952652
 H        -8.3447305774        3.8303247598        7.5944832922
 H       -11.9291936182       -0.8330393156        3.9616018442
 H       -13.2363344678       -0.2211337235        3.0840013511
 H       -12.1241277282        0.8343534488        3.8445338741
 H        -9.9583604613       -1.3267126977        0.8650026584
 H       -11.2763731383       -2.2917605341        1.6811373856
 H        -9.9874932640       -1.6119022319        2.5965272401
 H       -17.2506761858        1.4191480935       -1.7405032269
 H       -18.1725429585        2.7850375635       -1.0189724508
 H       -17.0971142456        1.6530306065       -0.1015381208
 H       -16.3481192158        3.2017821323       -3.2345313402
 H       -15.3066299707        4.5741439383       -2.6161124228
 H       -17.1801106696        4.5255005418       -2.2957796578
 Na       -7.7948189967        2.7772523584       -0.1209691114
