117

 C       -17.1170357542        5.1254034475        0.4667408729
 C       -15.8875422368        4.3087280652        0.0246552195
 O       -14.8038254509        4.6603884671        0.3949280351
 C       -16.0476798510        3.2607942579       -1.1571778494
 C       -14.6853776951        2.4648483880       -1.3322239485
 O       -13.8962800762        2.7702632236       -2.1658807668
 C       -14.3783601321        1.3647084840       -0.3003674605
 C       -13.0519568418        1.4929183863        0.3910335790
 C       -12.4283411777        0.0915306730        0.8028368452
 O       -12.7989688497       -0.8890631642        0.2710247199
 C       -11.2870585565        0.0572402532        2.0106274434
 C       -10.3304885709        1.2413162134        1.6903441437
 O        -9.4127200333        1.0086732766        0.9212942658
 C       -10.4214084520        2.7016825743        2.3474945408
 C        -9.9151369454        2.7403867436        3.8740592031
 C       -10.1347642352        4.1195882201        4.4582849196
 O       -11.1529874923        4.7042540097        4.1874926180
 C        -9.0036397608        4.7372064307        5.4417861632
 C        -7.6399859781        4.7317851069        4.6534778042
 O        -6.8045714165        3.8113403977        4.6636697495
 C        -7.3266061481        5.9412958852        3.7836525595
 C        -6.0852624738        5.6789783899        2.8541736901
 C        -6.3139854605        4.7765224288        1.6200967326
 O        -7.4630864012        4.4361598453        1.2525515672
 C        -5.0521375300        4.5209275103        0.6427670579
 C        -5.5905590781        4.7496174203       -0.8520016108
 O        -6.5689756946        4.1204857742       -1.2480627191
 C        -4.9427646191        5.8517731260       -1.6559081837
 C        -5.4637783943        6.0917833387       -3.0093595683
 C        -6.6753803835        7.0427940823       -2.8856228875
 O        -6.9448153373        7.5820009458       -1.8383301862
 C        -7.5929122655        7.3526160515       -4.1441006849
 C        -8.5720134034        6.0445516594       -4.1010959894
 O        -8.3293318205        5.1004753897       -4.8367904653
 C        -9.8889970225        6.0471220104       -3.3438651625
 C       -10.5677366811        4.7372890566       -3.4469644751
 C        -9.7058007131        3.6446346663       -2.6918742326
 O        -9.3998835597        3.9457188961       -1.5308526661
 C        -9.3486668249        2.2933789250       -3.3092456229
 C        -7.7244847343        2.0316533819       -3.1391839915
 O        -7.2960381290        1.7372304855       -2.0779539593
 C        -6.8568250063        2.2034169483       -4.3605317230
 C       -10.0798062791        1.2393000582       -2.4851506034
 C        -9.6943993516        2.0386645152       -4.8499435026
 C        -8.3895611781        8.6239936789       -3.8080470602
 C        -6.7091744342        7.4485968922       -5.3993769294
 C        -3.8982780798        5.4051595442        1.0098927308
 C        -4.7463273166        3.0577776335        0.8119178999
 C        -9.3403243134        6.1585361276        5.8888271551
 C        -8.9097222200        3.8309941998        6.6795695820
 C       -11.8748251581        0.2298397330        3.3936816355
 C       -10.4563621011       -1.1971520179        1.8017147956
 C       -17.2301323642        2.1981040079       -0.9326177583
 C       -16.2958162891        4.0828950985       -2.4073042590
 H       -17.8921633923        5.0092236520       -0.2091375723
 H       -16.8323052747        6.2010481468        0.6092515693
 H       -17.4786626671        4.8097796384        1.4560661258
 H       -14.2930894287        0.3545814545       -0.8144921066
 H       -15.1355438916        1.3696659431        0.5061282781
 H       -13.1399976157        2.2223578584        1.1858755202
 H       -12.3692054730        2.0099857061       -0.3147409303
 H       -11.4300584765        3.1056509109        2.4508929515
 H        -9.8231477211        3.4233649696        1.7108242571
 H        -8.8172279425        2.5408170988        3.9871828683
 H       -10.2781779544        1.9465171443        4.5102731983
 H        -7.2753581938        6.8942797532        4.2649363810
 H        -8.1866996583        6.0640396389        3.1486911836
 H        -5.2881361663        5.2689934946        3.4472682516
 H        -5.8083298377        6.5849425694        2.2870776430
 H        -3.8837332968        5.7618181819       -1.6436009152
 H        -5.1506911106        6.7110602224       -1.0271226938
 H        -5.6436768733        5.1802573770       -3.5476470255
 H        -4.6829974739        6.6164984244       -3.6210292771
 H       -10.4586267693        6.9506480243       -3.6742769288
 H        -9.8102182136        6.2776833810       -2.2770927636
 H       -10.6823840238        4.4407825636       -4.4866826498
 H       -11.5632439078        4.6891123065       -3.0680351706
 H        -6.4684797824        3.1924698128       -4.4489974679
 H        -7.4078419311        2.0605208481       -5.2858647487
 H        -6.0620120101        1.4786609028       -4.2931157743
 H       -10.0374532423        1.4710578013       -1.3580566571
 H        -9.5879225742        0.2827941730       -2.7518648327
 H       -11.1848483181        1.1009221242       -2.7007213934
 H        -9.3025344008        1.0854744019       -5.1879220651
 H        -9.1461497095        2.7758557860       -5.4550583004
 H       -10.7792397947        2.1137631190       -5.0523575964
 H        -7.8587449344        9.5130276633       -4.0708313962
 H        -8.6479673261        8.7411470761       -2.8293775014
 H        -9.3351229229        8.6969791853       -4.3216124084
 H        -7.3592727604        7.5093698029       -6.2779864548
 H        -6.1135351954        6.5805473362       -5.5374366204
 H        -6.0380389611        8.3713389150       -5.4557930635
 H        -4.2335955958        6.4332694849        1.2396756725
 H        -3.1984495247        5.3876397704        0.2661532301
 H        -3.5154008111        4.9614267733        1.9437568701
 H        -3.8271827683        2.7287269198        0.2987222067
 H        -5.6218250246        2.5519886253        0.4217594549
 H        -4.6780292025        2.6794431595        1.8693592069
 H       -10.2964120712        6.0929172843        6.2865443482
 H        -9.3951993866        6.9546398677        5.1610894762
 H        -8.6351886904        6.5749528382        6.5450642026
 H        -8.6370493963        2.8372139729        6.4385726785
 H        -9.9563767625        3.8143480720        7.1008796419
 H        -8.2035093555        4.2483065363        7.4439369362
 H       -11.0484626846        0.4650459215        4.0758895116
 H       -12.3363241903       -0.6295537915        3.7807051922
 H       -12.6810099913        0.9519877584        3.5340827955
 H        -9.9243327993       -1.1734852692        0.8988524159
 H       -11.0765328149       -2.0977962259        1.8421464845
 H        -9.7614804403       -1.2402719084        2.6580007411
 H       -17.0402108419        1.3115469764       -1.5690387738
 H       -18.2402458079        2.6509113280       -1.1365640838
 H       -17.3614227640        1.8851489735        0.0892533374
 H       -16.4916297262        3.3790499942       -3.1735964254
 H       -15.3917450267        4.5955960606       -2.5358718222
 H       -17.0707725859        4.7708899509       -2.1634075846
 Na       -8.0829764796        2.5197274971       -0.1718243568
