117

 C       -17.1554925283        5.1852385075        0.4695052514
 C       -15.9117911852        4.4304812416       -0.0054346320
 O       -14.8568544290        4.6374099116        0.5241932887
 C       -16.0585648250        3.2497547343       -1.2332461526
 C       -14.6352719097        2.4379069015       -1.2723205816
 O       -13.7789185293        2.7010148821       -2.0600875119
 C       -14.4070769616        1.4015611330       -0.1973325895
 C       -12.8446842611        1.3625661883        0.1323802464
 C       -12.4036056254        0.0990544012        0.8434571981
 O       -12.9136106261       -0.9560186723        0.6673335733
 C       -11.2914038976        0.2251580382        1.9957686253
 C       -10.2838933642        1.4500067615        1.7265944702
 O        -9.4260664978        1.2419370269        0.8745056836
 C       -10.4832449767        2.8494682376        2.3805456350
 C        -9.6586341392        3.0075246245        3.6555815557
 C       -10.0921269438        4.2860692892        4.3846290785
 O       -11.1462209641        4.8379342690        4.2218268437
 C        -8.9669984314        4.9867187340        5.4179648082
 C        -7.6394596113        4.9564186587        4.5125858128
 O        -6.8666156401        3.9786422820        4.5361130116
 C        -7.3574784958        6.1202822579        3.5912071843
 C        -6.1073705530        5.9098142340        2.7172008655
 C        -6.2573603606        4.7624195036        1.7410526930
 O        -7.3917435533        4.2105175496        1.5940095030
 C        -5.1241748705        4.3014210173        0.8510643762
 C        -5.4954626781        4.5670933401       -0.8016275060
 O        -6.5033083701        4.0956901292       -1.2766216275
 C        -4.6520918040        5.5345053901       -1.7663559955
 C        -5.5284777423        5.8744391241       -2.9540935162
 C        -6.6364413689        6.9543403496       -2.7845526300
 O        -6.9566594306        7.4583870062       -1.7297167881
 C        -7.5481168860        7.1326703763       -4.0109035848
 C        -8.5358846398        5.9139576173       -4.1175363632
 O        -8.2842988180        4.9047422905       -4.7853382889
 C        -9.9921687065        6.0025793144       -3.5974135917
 C       -10.6715474283        4.6282933064       -3.4214712107
 C        -9.7781509394        3.5952851908       -2.7029872517
 O        -9.5168550778        3.7389186857       -1.5464408145
 C        -9.3437749129        2.2001672006       -3.4350589356
 C        -7.8145390332        2.0542159603       -3.2200166429
 O        -7.3938196486        1.6135140869       -2.1722495106
 C        -6.8128993462        2.4980377549       -4.2991796227
 C       -10.0513137972        1.0551341010       -2.7064574668
 C        -9.8051883195        2.0426636446       -4.8831305128
 C        -8.3116427593        8.4306635881       -3.9404210133
 C        -6.8162452539        7.0809710036       -5.3945300298
 C        -3.8181031752        5.0231472621        1.1847027123
 C        -4.9874329967        2.7952745133        1.0250986108
 C        -9.3990877810        6.3975352502        5.7512776581
 C        -8.6632700395        4.0387841346        6.7075030326
 C       -12.1562596299        0.3910855826        3.2603360658
 C       -10.4958001614       -1.0711852265        2.0967485353
 C       -17.2507342076        2.3812240173       -0.9052942150
 C       -16.2298617558        4.0153147501       -2.5879932151
 H       -18.0602942607        4.6039927576        0.5414141529
 H       -17.3393841067        5.9744247886       -0.2701924799
 H       -16.9183214260        5.7054833707        1.4276573175
 H       -14.7627786769        0.4811173182       -0.5572390307
 H       -14.9246316017        1.7018093914        0.6585283348
 H       -12.5897461944        2.3250834007        0.5979395410
 H       -12.3873182203        1.3792092917       -0.8801938491
 H       -11.4790689141        2.9115086535        2.6861756601
 H       -10.0977486480        3.6528026611        1.6346859186
 H        -8.6045043332        2.7895602946        3.5732121691
 H        -9.8918978746        2.2129556569        4.4076497305
 H        -7.3529961388        7.1080717503        4.0652167369
 H        -8.2002789298        6.2278575963        2.8761264821
 H        -5.3147806147        5.5964681203        3.3833433250
 H        -5.9225957808        6.8312249875        2.0719076057
 H        -3.7708319638        4.9093997673       -2.1664206891
 H        -4.1936879611        6.4044472892       -1.2566555680
 H        -6.0155495986        4.9466567456       -3.2098678991
 H        -4.9208708873        6.0693409282       -3.8445289985
 H       -10.6151763087        6.5632534273       -4.2579854342
 H       -10.0508360343        6.6941382566       -2.7593039226
 H       -11.1684900642        4.2760641941       -4.3710821128
 H       -11.5233550344        4.7490647811       -2.8135332955
 H        -7.1318611056        3.3539975113       -4.8900569339
 H        -6.7697594419        1.6746306530       -5.0770995759
 H        -5.8271354364        2.5961275466       -3.9029172693
 H        -9.7727499332        0.9617049721       -1.6365795836
 H        -9.8864924516        0.1549628003       -3.1896643819
 H       -11.0418025496        1.3657482269       -2.6218523866
 H        -9.2592092408        1.2101304537       -5.2996361769
 H        -9.4694636277        2.9080844447       -5.4849540442
 H       -10.8527808071        1.9688122220       -4.9621581398
 H        -7.5065583157        9.2193869003       -3.8510396075
 H        -8.8922971963        8.5896316328       -3.0319654795
 H        -8.9963879584        8.7334700027       -4.7634892879
 H        -7.3699389570        7.6476480340       -6.1333271394
 H        -6.6900314771        6.0859385697       -5.7062071738
 H        -5.7898950533        7.5997056984       -5.3781292577
 H        -3.9446217168        6.1331062478        1.0789626424
 H        -3.0461213370        4.6726296389        0.5764050374
 H        -3.6254780675        4.8300279767        2.2775437293
 H        -4.1206543133        2.3967423855        0.5431754821
 H        -5.8901679449        2.3660666967        0.6065753426
 H        -5.0006536422        2.4538229371        2.0872307569
 H       -10.3368112914        6.3693690291        6.3333749702
 H        -9.6483997010        7.0210764454        4.8597832909
 H        -8.6089379348        7.0108512668        6.2639027870
 H        -8.8793261419        3.0241876002        6.4958474311
 H        -9.2490379561        4.3301073107        7.5869701765
 H        -7.6025502784        4.2268811946        6.8998516215
 H       -11.6780262588        0.0182508392        4.2131721946
 H       -13.0981796532       -0.1187876230        3.1401540622
 H       -12.4737036644        1.4243807419        3.4451101224
 H        -9.9454996346       -1.1519472318        1.1484777125
 H       -11.2327924579       -1.9092142598        2.0381331317
 H        -9.8081650450       -1.1502388740        2.9413126813
 H       -17.4285845449        1.7067442468       -1.7457409984
 H       -18.1899025111        2.8763382451       -0.7234732799
 H       -17.0368663060        1.8309628766       -0.0239491322
 H       -15.9338761128        3.2691523521       -3.3415502785
 H       -15.6515525044        4.9347700170       -2.5459941982
 H       -17.3074856080        4.2279741824       -2.5895759857
 Na       -8.0138350997        2.9129032272       -0.1591798151
