117

 C       -17.1345322380        5.1773254647        0.3785889411
 C       -15.8885819343        4.3809993403       -0.0499761013
 O       -14.8394019835        4.5251864052        0.5512100324
 C       -16.0006893913        3.3008815428       -1.1448429935
 C       -14.6689673333        2.5519453293       -1.1908269536
 O       -13.8755890497        2.7585977577       -2.0913204582
 C       -14.3088646257        1.4507192696       -0.1296269751
 C       -12.8101874190        1.3263937473        0.0192885711
 C       -12.4614153021        0.1603414272        0.8830589872
 O       -12.9580251523       -0.9076572450        0.6387711033
 C       -11.3577460934        0.3181384874        2.0774473855
 C       -10.4098733378        1.4803306058        1.7525823212
 O        -9.4762487244        1.3423108907        0.9629503749
 C       -10.5617586531        2.8517710266        2.3624300890
 C        -9.7320443334        2.9579493965        3.7194196536
 C       -10.0313883545        4.2671557377        4.3845159301
 O       -11.1179399071        4.7882421472        4.1708722615
 C        -8.9241995913        4.9649988946        5.3254313026
 C        -7.6154046014        5.0171121574        4.4823969960
 O        -6.7958184873        4.1078924690        4.5165192970
 C        -7.3259705471        6.2691839577        3.5817644465
 C        -6.1072804240        6.0581195902        2.5689824296
 C        -6.2802250434        4.8192505036        1.6697458846
 O        -7.3398394683        4.2015850238        1.7550487936
 C        -5.0600030470        4.3129917204        0.7476711789
 C        -5.4767479490        4.6771319313       -0.6797420414
 O        -6.3966263301        4.0357424182       -1.1537214937
 C        -4.6917771725        5.4577518668       -1.6880654328
 C        -5.4265915566        5.8667965468       -2.9809043258
 C        -6.6764451595        6.7699974367       -2.8139747643
 O        -6.8847283877        7.3460053144       -1.7800335561
 C        -7.6388373851        7.0989361943       -4.1068734013
 C        -8.6661783580        5.8969076839       -4.2219429822
 O        -8.2586514783        4.8729615469       -4.7209487804
 C       -10.0398019380        5.9812972242       -3.5673325079
 C       -10.6791360371        4.6134508094       -3.3808507706
 C        -9.8365992061        3.4760386552       -2.7481372471
 O        -9.5862480053        3.6435145946       -1.5220460899
 C        -9.4169567044        2.1779293908       -3.4626725947
 C        -7.8366144998        2.0284230726       -3.2518801356
 O        -7.4252346119        1.6153774871       -2.1927253136
 C        -6.8241394640        2.3411094444       -4.3525119662
 C       -10.1577739003        1.0485167054       -2.6376682779
 C        -9.6603464419        2.0889321640       -4.9813256053
 C        -8.2976434767        8.4678231111       -3.9002811547
 C        -6.6872232795        7.1032267324       -5.3480471381
 C        -3.7036333383        4.8888574076        1.1819232786
 C        -5.0396066901        2.7104701382        0.9629304250
 C        -9.3691312926        6.3596429637        5.7484664807
 C        -8.8007787425        4.1202934937        6.5998024122
 C       -12.1454676598        0.5348902471        3.4663452717
 C       -10.4779632911       -0.9796075141        2.1420081273
 C       -17.1847439271        2.3641252563       -0.9245708648
 C       -16.1663911557        3.9902353930       -2.6156073384
 H       -17.8508234784        4.5343180628        0.8178536797
 H       -17.6606914442        5.7361959823       -0.4705917697
 H       -16.8054044179        5.9185749271        1.1288744519
 H       -14.7362238663        0.5240893886       -0.4865868213
 H       -14.6897132652        1.6655631264        0.8371393297
 H       -12.4613618701        2.2949144922        0.3680383798
 H       -12.4324485232        1.1525915594       -1.0118912293
 H       -11.6295415963        2.9729555754        2.5780013873
 H       -10.0732049066        3.5489786502        1.6779524533
 H        -8.6355340998        2.9862248835        3.4345376397
 H        -9.6835382734        2.0883478901        4.3954285745
 H        -7.2134873999        7.2106905087        4.0916494007
 H        -8.1760671303        6.4728205142        2.9568141718
 H        -5.2328097491        5.8461063711        3.1754541146
 H        -6.0438651978        6.9215960308        1.8906421026
 H        -3.8299813976        4.8195562650       -1.9343275201
 H        -4.2769698264        6.4095420726       -1.3102467946
 H        -5.6684612731        5.0406616104       -3.6139006992
 H        -4.6572130416        6.4163925829       -3.5606215798
 H       -10.7862949980        6.6003534844       -4.0714638550
 H        -9.9317961177        6.6262633774       -2.7197793124
 H       -10.9979412008        4.2976855169       -4.3244621799
 H       -11.6387838267        4.7268029170       -2.8861517254
 H        -7.1847685269        2.9786500945       -5.1172722492
 H        -6.5798631314        1.4187686134       -4.8606977161
 H        -5.8788336725        2.7052424257       -3.9144291300
 H        -9.8456467917        0.9177006701       -1.6440345001
 H        -9.9123185671        0.1175320216       -3.1572951900
 H       -11.2502940551        1.3203803890       -2.5326841437
 H        -9.1183232406        1.2155056585       -5.3129187219
 H        -9.2169737916        2.9268900982       -5.5068592200
 H       -10.7430488946        2.0652240771       -5.2625108899
 H        -7.5677014679        9.2193148442       -3.6588009796
 H        -8.8841452504        8.4360189723       -3.0244914033
 H        -8.9603935995        8.8892150450       -4.6723072981
 H        -7.1720864624        7.5798983088       -6.2383104402
 H        -6.4336282210        6.0512336497       -5.5838185142
 H        -5.7486754527        7.6764421500       -5.1829796516
 H        -3.8269109469        5.9738384231        1.3506330614
 H        -2.9475173592        4.7329170972        0.4318550979
 H        -3.4264996735        4.4362802605        2.1392188680
 H        -4.4034972422        2.1958385395        0.2450599965
 H        -6.0517004710        2.3945751848        0.8146873917
 H        -4.7794578764        2.4013082739        1.9842794660
 H       -10.1354068034        6.2826062636        6.4777102402
 H        -9.8366996006        6.9036317889        4.8995778028
 H        -8.5945084481        7.0073274588        6.1311141488
 H        -8.8613459995        3.0938417176        6.3781607646
 H        -9.6476758341        4.3537460170        7.2885658465
 H        -7.8586357519        4.4349216751        7.0615498996
 H       -11.4757841774        0.5079486140        4.3259730593
 H       -12.8807768718       -0.2577311885        3.6048929690
 H       -12.6981583772        1.5070616639        3.5094057815
 H        -9.8563811721       -0.9964708612        1.2893341837
 H       -11.1158716566       -1.8595216802        2.0715809678
 H        -9.8357246434       -0.9723452863        3.0460430023
 H       -17.2050240171        1.6458947412       -1.7349872855
 H       -18.1725944411        2.8752956312       -1.0068425950
 H       -17.1337531538        1.8722240054        0.0226406810
 H       -16.0784569930        3.1233590623       -3.2151490639
 H       -15.4578884546        4.7541233339       -2.7988153929
 H       -17.1850721453        4.3164255876       -2.5997294671
 Na       -8.1030986477        2.9023698912       -0.1791348318
