117

 C       -17.1262242623        5.1747998372        0.2610152805
 C       -15.8741319796        4.3470175672       -0.0112473879
 O       -14.8008165620        4.4307977205        0.5735167733
 C       -16.0173645719        3.2916185385       -1.1550382001
 C       -14.6783599540        2.6193411159       -1.2411848168
 O       -13.8397770859        2.7940332613       -2.1558815223
 C       -14.2696147181        1.6265820987       -0.0838546639
 C       -12.7640402025        1.3768049569       -0.0006724309
 C       -12.4293744333        0.1662761721        0.9257227304
 O       -12.9354982718       -0.9520269779        0.7609632437
 C       -11.3778294954        0.4032908502        2.1141468558
 C       -10.4902475184        1.5408859816        1.7691273985
 O        -9.5756626901        1.3079952916        0.9922130285
 C       -10.6211009947        2.9501658263        2.4369033480
 C        -9.7160755153        2.9367873871        3.6805507187
 C        -9.9811253584        4.3495735647        4.3383892333
 O       -11.0686968507        4.8688902221        4.2377730770
 C        -8.9254227669        4.9888880615        5.1919233109
 C        -7.5214553482        5.0920299906        4.4100254165
 O        -6.7183972324        4.2300787698        4.5484140670
 C        -7.3149161550        6.3155973375        3.5197818643
 C        -6.1445798710        6.1752550633        2.5528066790
 C        -6.2840702498        4.8117457759        1.7564713910
 O        -7.2820063289        4.2055778495        1.7213604582
 C        -5.1146306826        4.3758934257        0.8171107432
 C        -5.4916536101        4.5284331937       -0.7244386195
 O        -6.4957584213        4.0178780348       -1.1477051497
 C        -4.6356710147        5.5507736174       -1.5740927293
 C        -5.3406229520        5.8840560077       -2.9767519760
 C        -6.6669955151        6.6319808629       -2.8365487287
 O        -6.8655876275        7.1994698275       -1.7833014387
 C        -7.5757782727        7.0411081538       -4.0924440207
 C        -8.6367627898        5.8821572121       -4.1767040652
 O        -8.2856960496        4.8501794369       -4.7066747784
 C       -10.0033681386        5.9178840436       -3.4968132448
 C       -10.7733201197        4.5539907284       -3.5498616453
 C        -9.8769727113        3.4909488097       -2.7989389793
 O        -9.7410233235        3.6644631264       -1.5858267848
 C        -9.3552814884        2.1695345878       -3.5258222911
 C        -7.8440207933        1.9354597944       -3.2043481067
 O        -7.4327497608        1.6361663866       -2.0855188640
 C        -6.8665420501        2.0477101147       -4.3638441491
 C       -10.1777651314        1.0621728843       -2.7330567974
 C        -9.6818867459        2.1704668088       -5.0149434976
 C        -8.2300559741        8.4281421524       -3.8403401762
 C        -6.6443899816        7.1672372009       -5.3332451935
 C        -3.6016915089        4.7913657864        1.1877652495
 C        -5.0482471787        2.7662623430        0.8713656431
 C        -9.4273362343        6.4226335505        5.6452322408
 C        -8.8153717929        4.0934803868        6.4519861875
 C       -12.0733255741        0.6070041324        3.4637160360
 C       -10.5736725451       -0.9076727260        2.2187160395
 C       -17.1447910384        2.3111785169       -0.9169875068
 C       -16.1712152262        4.0305329123       -2.5623992508
 H       -17.7338959674        4.6173835506        1.0313011059
 H       -17.7495574421        5.2187517320       -0.6259293402
 H       -16.9351596191        6.1602145561        0.6208785504
 H       -14.7163976792        0.6181385098       -0.3298536148
 H       -14.6509755927        1.9228953516        0.9409265147
 H       -12.3008278186        2.2926262092        0.3644681073
 H       -12.4755796856        1.1832633244       -1.0325530511
 H       -11.6446176855        2.9626823862        2.9093606564
 H       -10.3486993494        3.7035432136        1.7872796516
 H        -8.6467227563        2.7059935484        3.4618358683
 H        -9.9502059707        2.0853688963        4.3284226899
 H        -6.9845670904        7.1160245339        4.1727282298
 H        -8.1616129908        6.7706852432        3.0575986117
 H        -5.2478877443        6.2392036672        3.1854890697
 H        -6.2408807713        6.9101172806        1.8120620571
 H        -3.6195959869        5.3041441742       -1.6771077727
 H        -4.6981921855        6.4907809235       -1.0317266487
 H        -5.6135426917        4.9397486997       -3.5137700531
 H        -4.6460175494        6.3972972995       -3.6291771290
 H       -10.6196082104        6.8197137048       -3.7394427813
 H        -9.8351937582        6.2078985159       -2.4561263019
 H       -11.0081697144        4.2133952839       -4.5203329458
 H       -11.7931415457        4.7220208588       -3.1103422761
 H        -7.3051234275        2.5383158148       -5.2266367979
 H        -6.4536479179        1.1403480750       -4.6798468199
 H        -6.0210183749        2.6473828767       -4.0035821741
 H        -9.9348651483        0.9925690528       -1.6774549996
 H        -9.7653364118        0.0904522798       -3.1677475404
 H       -11.2846151085        1.2538471004       -2.7552398894
 H        -9.3025786078        1.2440687940       -5.4817033070
 H        -9.3487264032        3.0307536892       -5.5770147148
 H       -10.8007032409        2.1649485262       -5.0439461540
 H        -7.6299048169        9.2588564296       -3.6703696848
 H        -8.8961392061        8.3533196712       -2.9742557567
 H        -8.8633404314        8.6488618673       -4.6418648383
 H        -7.2439525808        7.4210316081       -6.2402640237
 H        -6.1171079096        6.1671882512       -5.5312422748
 H        -5.9234109665        7.9325729150       -5.1994074677
 H        -3.5466646474        5.8474400902        1.2766577693
 H        -2.9693860900        4.5288283500        0.2588244332
 H        -3.2055656152        4.3313250027        2.0464635524
 H        -4.5011973633        2.4998078166       -0.0551033534
 H        -6.0345180615        2.2604900697        0.8403757663
 H        -4.4809633918        2.4077943645        1.7137084733
 H       -10.1467259378        6.3792736741        6.4534443712
 H        -9.8305324248        7.0110996760        4.8526889637
 H        -8.5934998831        6.9417692960        6.0874638240
 H        -8.4037811785        3.0896497452        6.1277393469
 H        -9.8215363248        3.9121821392        6.7824236516
 H        -8.2449340784        4.6270460022        7.1939275711
 H       -11.4007041322        0.9902603295        4.1841072630
 H       -12.4202456930       -0.3759201323        3.9029510223
 H       -12.9029052691        1.3185604410        3.4077220103
 H        -9.8534635087       -0.9707494254        1.4052767896
 H       -11.2214092336       -1.7537905942        2.1799403314
 H       -10.0247401352       -0.8286328020        3.1375486874
 H       -17.1180697878        1.4483104780       -1.5707315638
 H       -18.0927282963        2.7974254922       -1.1779509646
 H       -17.1807005271        1.9854099967        0.1576654586
 H       -16.3154660944        3.2269263301       -3.2140878863
 H       -15.2277477604        4.4975399138       -2.7236067269
 H       -16.9914621967        4.6770910002       -2.5264857318
 Na       -8.1860501776        2.7496247486       -0.0870831884
