117

 C       -17.1454681890        5.2428321315        0.2222299220
 C       -15.9025735869        4.3544732036       -0.0413768128
 O       -14.9377276884        4.4094456938        0.6933723006
 C       -15.8796451063        3.3883638027       -1.2491572656
 C       -14.4631318248        2.5799588437       -1.2613154335
 O       -13.7101972901        2.7028199713       -2.2012530086
 C       -14.2094434203        1.7302605695       -0.0632394462
 C       -12.6875366471        1.3236585386        0.0505385772
 C       -12.4850956257        0.1375536470        1.0144830402
 O       -13.0554639705       -0.9078429083        0.9383593376
 C       -11.4119019875        0.4108411060        2.3163096203
 C       -10.5149047935        1.5077718398        1.8527121255
 O        -9.7296160796        1.1968562334        0.9435477299
 C       -10.6469216775        2.9683195929        2.3482954156
 C        -9.6596055906        3.2521101887        3.5046041078
 C       -10.0000294017        4.5258276093        4.2618035690
 O       -11.0768772376        5.1211302346        4.2131708695
 C        -8.8315307958        5.1081762524        5.1304418029
 C        -7.4824120531        5.2238008000        4.3135177931
 O        -6.5426924585        4.4479257700        4.5990287796
 C        -7.2128486091        6.3864121654        3.3240193780
 C        -6.0105143918        6.0391920834        2.3887313493
 C        -6.2730409573        4.7699443311        1.6639960225
 O        -7.4145213789        4.2133541714        1.5745035287
 C        -5.1177206287        4.2479090494        0.8063732734
 C        -5.5284594339        4.5762132710       -0.7031198092
 O        -6.6009967671        4.2054586283       -1.1362039065
 C        -4.6759177519        5.6624353743       -1.4369142424
 C        -5.3294060426        5.8520273934       -2.8078288561
 C        -6.6495454304        6.6266512727       -2.6751047043
 O        -7.0224301828        6.9765114357       -1.5776565344
 C        -7.4611560896        6.9736112734       -3.9974027041
 C        -8.3865622413        5.8011284669       -4.1144644280
 O        -8.0705900529        4.8137424248       -4.7427341651
 C        -9.7227776111        5.8783923583       -3.4238651602
 C       -10.5344228087        4.6481100201       -3.7177374339
 C        -9.9775982158        3.5195212685       -2.8404709388
 O        -9.8311689243        3.6419600302       -1.6325167117
 C        -9.5355436419        2.1119606470       -3.5571877838
 C        -7.9826208428        1.8497886256       -3.2240920009
 O        -7.6288100462        1.7888416020       -2.0554800338
 C        -6.9317189595        1.5148695541       -4.2462956522
 C       -10.2024340489        0.8618207592       -2.8676185089
 C        -9.7757192328        2.0792547655       -5.1029414963
 C        -8.2286060421        8.2872555507       -3.6271501921
 C        -6.7259743956        7.0142761550       -5.3759503871
 C        -3.8003928889        4.9194455805        1.0973642532
 C        -4.9840730518        2.6988636337        0.8870666810
 C        -9.2855074789        6.5746579974        5.6618186404
 C        -8.5950262044        4.1912540011        6.3598010143
 C       -12.3989725678        0.6357806132        3.4645492664
 C       -10.5836966973       -1.0080051420        2.4333348973
 C       -17.0310757251        2.2867652322       -0.9447691160
 C       -16.3068171409        4.0948401685       -2.5884011847
 H       -17.2782555303        5.4625547841        1.2219445529
 H       -18.0765015660        4.7978837957       -0.1718113100
 H       -16.9571768826        6.1965501019       -0.3025125810
 H       -14.7194267544        0.7615312455       -0.1896686750
 H       -14.6267571013        2.1922580321        0.8203206426
 H       -12.0895179265        2.1786523586        0.3671740342
 H       -12.4185005750        0.9589576992       -0.9570525566
 H       -11.6410180402        3.1831027183        2.6648430589
 H       -10.3184736967        3.6020633214        1.4403855032
 H        -8.6550105302        3.3200487070        3.0970602738
 H        -9.6485736397        2.3846280855        4.1696451179
 H        -7.1272612089        7.4048789956        3.7579522148
 H        -8.0755203357        6.5225594704        2.6211051801
 H        -5.1426521999        5.7985174870        2.9782569162
 H        -5.8371359069        6.7908317608        1.5520379467
 H        -3.5900629509        5.3978827324       -1.5608366022
 H        -4.7846543046        6.5842615835       -0.8459932289
 H        -5.3614737463        4.8833785900       -3.2964993094
 H        -4.6753732027        6.5177574581       -3.4494085546
 H       -10.1789834199        6.8205006716       -3.7205494392
 H        -9.6597065206        6.0793810453       -2.3230017368
 H       -10.6288341063        4.3020616590       -4.7796124030
 H       -11.5606541029        4.8982609060       -3.4010456727
 H        -7.1851481817        1.7115094657       -5.2746231376
 H        -6.6888435151        0.4157240039       -4.1303054321
 H        -5.9984367341        2.0145885844       -3.9803738514
 H       -10.1754328493        0.8265882692       -1.7848240248
 H        -9.7444012710       -0.0215793492       -3.2100422534
 H       -11.2528230971        0.9439937972       -3.1442764716
 H        -9.5603930108        1.0498871493       -5.3870003397
 H        -9.1351699041        2.7990701632       -5.6365760432
 H       -10.7994677130        2.2309099248       -5.4131484778
 H        -7.5930075869        9.2126222770       -3.7465587552
 H        -8.6553481673        8.3297865956       -2.6384491781
 H        -9.0579285901        8.4662244216       -4.4005627549
 H        -7.5102201249        6.9821071654       -6.0893019809
 H        -6.1934304057        6.1404478311       -5.5284157550
 H        -6.0928992943        7.9172528557       -5.5045944599
 H        -3.6927792516        5.9652887578        0.7244102319
 H        -3.0788268154        4.3543158954        0.6119529001
 H        -3.4854464592        4.8480649534        2.1934677442
 H        -4.3899903536        2.3435391652        0.0477623201
 H        -5.9666523265        2.2573814846        0.7321325084
 H        -4.5333695029        2.3473802604        1.8497615887
 H       -10.3009691688        6.5269723942        6.0647181968
 H        -9.3109428471        7.2503705303        4.7405567540
 H        -8.7406533165        6.9615203151        6.5658165478
 H        -7.6224001796        3.8561635460        6.1960758037
 H        -9.2375796356        3.2965775335        6.2462805455
 H        -8.7180184108        4.7094195706        7.3272642990
 H       -11.8198581555        1.0196329681        4.3503361727
 H       -12.8600931341       -0.2620092097        3.7955541262
 H       -13.0485305539        1.4760686095        3.1810999288
 H        -9.9653321271       -1.1577627435        1.5556371810
 H       -11.3479495796       -1.8217479629        2.5421173536
 H        -9.9043818724       -0.9164240163        3.3120790233
 H       -16.9202643234        1.4137269540       -1.6147513891
 H       -18.0662713862        2.6232687953       -1.1007021287
 H       -16.8805120646        1.9067344224        0.0356335532
 H       -16.7565473437        3.3506035358       -3.2836656404
 H       -15.3597678808        4.4979168264       -2.9480013333
 H       -17.0634794336        4.8305677098       -2.2291475627
 Na       -8.2244954648        2.7129966657       -0.0789528678
