117

 C       -17.1549464996        5.2772995514        0.1583445714
 C       -15.8965082109        4.4163110898       -0.0164068986
 O       -14.9665099203        4.4254636068        0.7818012525
 C       -15.8525046852        3.4257792276       -1.2223635592
 C       -14.5170036998        2.6773698124       -1.2191169076
 O       -13.7533391653        2.6857384955       -2.2071179656
 C       -14.1865962063        1.6380875009       -0.0750007009
 C       -12.6694729406        1.2475128940        0.0263748359
 C       -12.4971268923        0.1197338630        1.0464680630
 O       -13.1912460054       -0.8996198882        0.9887512859
 C       -11.5828898743        0.3639209622        2.2482703977
 C       -10.5471429512        1.4710911955        1.8442993800
 O        -9.6949909313        1.1816929565        1.0020761388
 C       -10.6385600228        2.9438335192        2.2793937775
 C        -9.5877777640        3.3323121925        3.4501818722
 C        -9.9147491238        4.6539575791        4.1575781870
 O       -10.9887952753        5.1932014001        4.1373619521
 C        -8.7265021149        5.2392732028        5.1049278449
 C        -7.4527517975        5.3392535989        4.3097257164
 O        -6.5344432136        4.6173207704        4.5482359055
 C        -7.3251914434        6.3394638402        3.2059929768
 C        -6.0828013469        5.9374167974        2.4139522806
 C        -6.3254435743        4.7354628840        1.5836033280
 O        -7.4219327808        4.2508806029        1.5289264381
 C        -5.0902812078        4.2302025960        0.7403548332
 C        -5.5976922737        4.6440674047       -0.6912446270
 O        -6.6162647251        4.2427683203       -1.1197378780
 C        -4.6251230626        5.4927313803       -1.5154529970
 C        -5.2618821264        6.0109200321       -2.8345869759
 C        -6.6049069987        6.6890361604       -2.6730406961
 O        -7.1283106901        6.9171631205       -1.5812835002
 C        -7.4229719141        7.0153960172       -3.9643648743
 C        -8.3865815144        5.7501041851       -4.1374755713
 O        -7.8883146903        4.7957630262       -4.6623793524
 C        -9.7460919423        5.8149786098       -3.4378238349
 C       -10.5605022098        4.5273747108       -3.5965102970
 C        -9.9478888110        3.3216401222       -2.9134037759
 O        -9.8098619034        3.4891692568       -1.6754957844
 C        -9.5289157595        2.0050884235       -3.5668929830
 C        -8.0590783718        1.7286454054       -3.2118416651
 O        -7.7391433271        1.8830015489       -2.0635688545
 C        -7.0929799969        1.2959620434       -4.2547775029
 C       -10.3141551516        0.8549276396       -2.8603142371
 C        -9.7294730858        2.0115327716       -5.1002800716
 C        -8.2091898606        8.3255744285       -3.6803833650
 C        -6.5672184332        7.0833803929       -5.2172330477
 C        -3.7552779312        4.9220182675        1.1867910529
 C        -4.9859391855        2.6248000365        0.9135764421
 C        -9.1028458078        6.6106666170        5.7420520960
 C        -8.5811795440        4.3061788401        6.3965597493
 C       -12.4419004555        0.6753925098        3.4937047547
 C       -10.7388935392       -0.9174625708        2.6112629341
 C       -16.9187298989        2.2767850766       -0.9876104604
 C       -16.2018016703        4.0067820097       -2.6123042745
 H       -17.0780017656        5.8965341591        1.0504310705
 H       -18.0374480985        4.5999539694        0.2805533760
 H       -17.3131336495        5.9473175205       -0.6771314334
 H       -14.6824551085        0.7286928785       -0.2564316919
 H       -14.5345759340        1.9277383221        0.8663679201
 H       -12.1275452957        2.1227936148        0.3771913993
 H       -12.2730958100        0.8388985966       -0.9280243714
 H       -11.7228471392        3.0256906870        2.6851528762
 H       -10.4944659916        3.5427925284        1.3741974389
 H        -8.5500178375        3.3487912005        2.9984825015
 H        -9.6513790961        2.4964727910        4.1849199929
 H        -7.0896688434        7.3328613908        3.6354966818
 H        -8.1430642250        6.6085110525        2.5366898503
 H        -5.3375818422        5.5904033567        3.1730080638
 H        -5.7485698666        6.7683588791        1.7482608345
 H        -3.6248259301        5.0040761861       -1.6406165534
 H        -4.5026832472        6.3431579734       -0.7705430907
 H        -5.4099867315        5.1146641486       -3.4054653579
 H        -4.6082192768        6.6755717549       -3.4169248550
 H       -10.2616162288        6.7231023914       -3.7852158849
 H        -9.4642125220        6.1581364312       -2.4469854807
 H       -10.6699489680        4.3458053945       -4.5959342398
 H       -11.5881764579        4.6517661879       -3.1836982781
 H        -7.3713977007        1.5698628890       -5.2749960117
 H        -7.0267843226        0.2197787458       -4.2005733477
 H        -6.0395656566        1.6522312877       -4.0443159112
 H       -10.1833813554        0.8662878686       -1.8663115989
 H        -9.9832704300       -0.1320641243       -3.1854847486
 H       -11.3875630363        1.0016939348       -3.0724995477
 H        -9.6434807469        0.9995325935       -5.4370587554
 H        -9.1004542050        2.7104326108       -5.5738985329
 H       -10.7871299144        2.2501228874       -5.3843317276
 H        -7.5422123404        9.2073757662       -3.7830767515
 H        -8.5619767402        8.3686285639       -2.6160643848
 H        -9.0778261008        8.5958330021       -4.3694506381
 H        -7.2983238072        7.1486475799       -6.0246948074
 H        -6.0877155887        6.0861776762       -5.3896286688
 H        -5.8833340033        7.8695796543       -5.1910888880
 H        -3.7120829294        6.0119436546        1.2022943901
 H        -2.8257995372        4.5565115512        0.6560838926
 H        -3.6124000230        4.4929693113        2.1744826295
 H        -4.1520326559        2.1951438194        0.3403668471
 H        -5.8892509216        2.0991648866        0.6093669337
 H        -4.7811719659        2.5095944399        1.9681067347
 H       -10.1263950579        6.6129951013        6.1576381293
 H        -9.0395044515        7.3792395083        4.9078457968
 H        -8.5395044811        6.8085314604        6.6599916954
 H        -7.5181079895        4.2213092138        6.5306647705
 H        -9.0544763611        3.3324850236        6.2166149626
 H        -9.0338706404        4.8068060318        7.2368212624
 H       -11.7571276310        0.6880785702        4.3409300979
 H       -13.1998176177       -0.0798253168        3.7292579035
 H       -12.7907894576        1.7257169116        3.3829523623
 H       -10.0110352323       -1.1134308465        1.8219656846
 H       -11.4240333378       -1.7604893998        2.7806012818
 H       -10.1499217533       -0.6248037201        3.5490881666
 H       -16.8825158762        1.5712843519       -1.7889673400
 H       -17.9386677941        2.6774140076       -0.9987466436
 H       -16.7100548153        1.6925827583       -0.1198031229
 H       -16.3832779150        3.1663460547       -3.3175862241
 H       -15.2343368712        4.4839532303       -2.8432151695
 H       -17.1074612868        4.6308989435       -2.4555541720
 Na       -8.2630080827        2.8566706806       -0.1696846690
