117

 C       -17.1318875886        5.2774191240       -0.0324921113
 C       -15.9120108342        4.3842946877       -0.0188933005
 O       -15.0412800193        4.4085031131        0.8145089017
 C       -15.8863563603        3.2942957425       -1.1885485654
 C       -14.4606949724        2.5032372592       -1.2720237827
 O       -13.6371478848        2.7343344101       -2.1198097230
 C       -14.1909268754        1.6049612028       -0.1341898160
 C       -12.7734356017        1.1180375310       -0.0707929963
 C       -12.5464038654        0.1523921837        1.1050486312
 O       -13.2275954193       -0.8344032765        1.2095646636
 C       -11.6127428227        0.4733990020        2.2845126916
 C       -10.5361354610        1.5838204578        1.9963207804
 O        -9.6439402463        1.2975563667        1.2239379740
 C       -10.5681358739        3.0605760585        2.5001156933
 C        -9.5790964562        3.3720346033        3.5625012850
 C        -9.8596348339        4.7314140557        4.2157937703
 O       -10.7846538375        5.4472575646        3.8635211075
 C        -8.7495958574        5.3396156773        5.1796042165
 C        -7.4514181139        5.3382596562        4.3504990410
 O        -6.4329412735        4.6854901535        4.7142589010
 C        -7.3998248044        6.3455265905        3.1948945702
 C        -6.2045852127        6.1367484688        2.2161603890
 C        -6.2496353870        4.8404683337        1.5060574746
 O        -7.3896949404        4.3250195929        1.5296372525
 C        -5.0729293887        4.2292943812        0.7280986404
 C        -5.4242818992        4.5645656529       -0.8141787369
 O        -6.5342536583        4.1935866805       -1.2615394760
 C        -4.4349497537        5.4769706420       -1.6048510695
 C        -5.1656165017        6.0820613261       -2.7964663535
 C        -6.6064633176        6.7048878588       -2.5900976883
 O        -7.0634475620        6.9121350602       -1.5054923157
 C        -7.3730900210        7.0727694405       -3.9215301199
 C        -8.2902867451        5.7458427797       -4.1333590865
 O        -7.8235167427        4.6646062874       -4.4396347255
 C        -9.7686514310        5.7344972630       -3.4849951953
 C       -10.5109959607        4.4656778016       -3.7435374985
 C       -10.0141659197        3.2261434589       -2.8696497752
 O       -10.0057125061        3.3452007417       -1.6818778778
 C        -9.5768201039        1.8619727958       -3.5561278021
 C        -8.0703216147        1.4515449997       -3.2529934309
 O        -7.5273703149        1.6594358444       -2.1697957502
 C        -7.2183092174        0.7799603157       -4.3363605486
 C       -10.5816734219        0.7768929853       -2.9751795210
 C        -9.9008343627        1.8261988208       -5.0967842171
 C        -8.2425947879        8.3305267273       -3.8619737442
 C        -6.3720201991        7.3323721686       -5.1201465993
 C        -3.6735214838        4.7216532703        1.1810745714
 C        -5.1361445828        2.6475548954        0.8107748662
 C        -9.1463837769        6.7381824205        5.6363470534
 C        -8.5534839370        4.3263079998        6.3472708119
 C       -12.4969519415        1.0230621720        3.4927379102
 C       -10.9272863730       -0.8808802456        2.7099578741
 C       -17.0772916052        2.3369241158       -0.9503430265
 C       -15.9579226831        4.1307849031       -2.5556112795
 H       -16.8351218736        6.3069130695       -0.0876357501
 H       -17.7215686844        5.1203175172        0.8652069034
 H       -17.7594998467        5.0979551055       -0.9409279000
 H       -14.8235615492        0.6722956389       -0.2713124652
 H       -14.6021950217        1.9905628864        0.8488522496
 H       -12.0844454958        1.9636272123       -0.0443789997
 H       -12.6025643387        0.5031816714       -0.9358034075
 H       -11.5396628055        3.3281726160        2.7431819876
 H       -10.3371066745        3.6713713456        1.5809243136
 H        -8.5831891058        3.3813556679        3.1255595949
 H        -9.7043891934        2.6176669387        4.3786888961
 H        -7.3367846903        7.3640206844        3.5445612570
 H        -8.3391589817        6.3337540698        2.6437569903
 H        -5.3005487349        6.2800515730        2.7774409376
 H        -6.2767469101        6.8309542827        1.3733069000
 H        -3.6601251829        4.8293157345       -1.9831527136
 H        -3.9867942701        6.1843390360       -0.9451851945
 H        -5.1024154692        5.3018252793       -3.5786525413
 H        -4.5755180587        6.9363917101       -3.1364491857
 H       -10.3086080616        6.6117069784       -3.8642328541
 H        -9.4947229939        6.0257218188       -2.4376249333
 H       -10.4849841942        4.2763810807       -4.8903954475
 H       -11.5255818110        4.5882340221       -3.3934088169
 H        -7.0395500003        1.5318682395       -5.0808208849
 H        -7.6444536270       -0.1140783851       -4.8322297446
 H        -6.2748663412        0.5091354534       -3.9694835837
 H       -10.2551682600        0.5867367013       -1.8829628488
 H       -10.5226751928       -0.2226692866       -3.4570061951
 H       -11.6431123476        1.1008420402       -3.0539783129
 H        -9.6677469209        0.9042058875       -5.6289504378
 H        -9.4934695784        2.7614146916       -5.5300194654
 H       -10.9509788418        1.8589512217       -5.2084008353
 H        -7.6091984503        9.2076312728       -3.8046293803
 H        -8.9462679553        8.3940227604       -3.0902617894
 H        -8.7147104675        8.4410742058       -4.8061412420
 H        -6.8346884899        7.9600543035       -5.8912530183
 H        -5.9958382096        6.4309419876       -5.5515980838
 H        -5.5284415366        7.9028035985       -4.5829009342
 H        -3.5206694799        5.8073558226        1.2789250179
 H        -2.9102184499        4.3531790635        0.5926370346
 H        -3.4672321420        4.2490728975        2.1688667154
 H        -4.2059710364        2.2141340624        0.4954795260
 H        -5.9004950132        2.2489296241        0.1589823999
 H        -5.2845236992        2.3864777842        1.8700712065
 H        -9.9179321023        6.6777228939        6.3434895402
 H        -9.4634380507        7.2792813784        4.7864589775
 H        -8.3686348423        7.1332540592        6.2508252793
 H        -8.1321362808        4.8554098797        7.1892864875
 H        -8.0436837686        3.4404697243        5.9968827801
 H        -9.5927358105        4.0321453815        6.5949132676
 H       -11.9484085704        1.0491113734        4.4633577369
 H       -13.2291514635        0.2405027066        3.5652197277
 H       -12.9935737428        1.9446102267        3.2435831691
 H       -10.2631780406       -1.1308662863        1.8882883739
 H       -11.7475772516       -1.5967435407        2.7754673194
 H       -10.4096905950       -0.7946433577        3.6226830651
 H       -17.0519033209        1.4440273724       -1.6001209537
 H       -18.0112140146        2.8667123553       -1.0303501040
 H       -16.9773749199        1.8681750578        0.0282516617
 H       -15.5472957142        3.4682134234       -3.2689050515
 H       -15.3571761688        4.9898073613       -2.4918490617
 H       -16.9832401097        4.2158908542       -2.7722158170
 Na       -8.4345087982        2.9049081399       -0.0880808622
