117

 C       -16.9496175877        5.4963292552       -0.0456517225
 C       -15.9676836598        4.3356574578       -0.0628528663
 O       -15.1652472056        4.2857572830        0.8419331916
 C       -15.8392300202        3.3242622120       -1.3301439218
 C       -14.4621515738        2.6351605363       -1.2432052663
 O       -13.6359896901        2.8257941507       -2.0738359417
 C       -14.2987038569        1.7093674128       -0.0537661609
 C       -12.9052055014        1.1626503365        0.1521279069
 C       -12.6184683286        0.1432766106        1.3026353939
 O       -13.2142383135       -0.8760605688        1.4466319105
 C       -11.5669613321        0.6877154149        2.4558795253
 C       -10.6084509281        1.7755105565        1.9468623089
 O        -9.6985796679        1.4133529288        1.1933285586
 C       -10.6247535629        3.1874360076        2.4629347686
 C        -9.9173156851        3.3335467066        3.7795028661
 C        -9.7347174644        4.8464078602        4.1041547186
 O       -10.3596411680        5.6546444491        3.4411520728
 C        -8.7206344868        5.3728520195        5.1844525617
 C        -7.4317234584        5.5695380206        4.3421094410
 O        -6.4276740675        4.8634743310        4.6200227191
 C        -7.2986230808        6.5873599874        3.2352621205
 C        -6.1856154593        6.0920545361        2.2625580140
 C        -6.5307926938        4.7744140528        1.4735692517
 O        -7.6152246341        4.2269379033        1.5110527988
 C        -5.2887531303        4.1440207014        0.6643900335
 C        -5.4646566317        4.5083615474       -0.7918930537
 O        -6.3985008818        3.9700861374       -1.4998641694
 C        -4.6645873167        5.5603141000       -1.4264528311
 C        -5.1228158046        5.9594811272       -2.8408436863
 C        -6.3786275044        6.7833667793       -2.6244359428
 O        -6.6594295711        7.2318328758       -1.5675575142
 C        -7.4287719644        7.0153933991       -3.8475553412
 C        -8.2025960057        5.6398526499       -3.9948516803
 O        -7.5614157988        4.6925198126       -4.4621060933
 C        -9.6602439186        5.6071287040       -3.4497171537
 C       -10.3036422716        4.3189265662       -3.9752847838
 C        -9.9178880175        3.1707503305       -3.0739784677
 O        -9.8865411665        3.3678446262       -1.8967919924
 C        -9.7320703367        1.7436502498       -3.6190862159
 C        -8.2512529978        1.2476004956       -3.2078159284
 O        -7.8261506917        1.3785976372       -2.0694113008
 C        -7.4972745264        0.3629086470       -4.2566372349
 C       -10.6342196504        0.7507194117       -2.8159388932
 C       -10.0142295080        1.6643910728       -5.1160632873
 C        -8.2045213583        8.2581662681       -3.4972899317
 C        -6.7076381413        7.2079880606       -5.2338065260
 C        -3.8609087117        4.6260694909        1.2192119715
 C        -5.2241735541        2.5623788220        0.9298627616
 C        -9.1682208582        6.8144708003        5.6479745245
 C        -8.4562614667        4.4382392007        6.3624615482
 C       -12.5192364554        1.2026881211        3.5756465708
 C       -10.6948971335       -0.4841028652        3.1299575901
 C       -16.9915775141        2.2571514031       -1.2999797696
 C       -15.8834531127        4.0647160362       -2.7053272721
 H       -17.2255152967        5.9020311734       -1.0520070980
 H       -16.5598974970        6.2266073224        0.6239864924
 H       -17.8979086858        5.1917908886        0.4079335791
 H       -14.9920486411        0.9253951211       -0.0641440043
 H       -14.6163610934        2.2970300891        0.7729659604
 H       -12.1783441597        2.0113999032        0.2471257803
 H       -12.6228466643        0.7128017373       -0.8146264436
 H       -11.5416594532        3.7940955368        2.5437370767
 H       -10.1351840165        3.7640192328        1.6871605119
 H        -8.8660990000        2.9453509398        3.7517811096
 H       -10.6644441426        3.0161006211        4.5312992655
 H        -6.9874455157        7.5624856739        3.6366093058
 H        -8.2000958506        6.7482322658        2.6349508813
 H        -5.1779394884        6.0563430283        2.7954763332
 H        -6.0512727346        6.8227972655        1.4365698647
 H        -3.5914934697        5.2511487042       -1.3690163219
 H        -4.7877198229        6.5321797701       -0.8468595438
 H        -5.3540496555        5.1179607607       -3.5289398008
 H        -4.3172997689        6.5368359829       -3.2133924307
 H       -10.1165036132        6.5605315583       -3.6799506505
 H        -9.5302275667        5.4737466650       -2.4006483067
 H        -9.8908990721        3.9771802847       -4.9348772947
 H       -11.3161026262        4.5105770909       -3.9758116738
 H        -6.8169515027        0.9392897176       -4.9404279385
 H        -8.1532887422       -0.2791930695       -4.8877571482
 H        -6.8177538554       -0.2955787076       -3.7378304299
 H       -10.5078652078        0.9372758101       -1.7242916867
 H       -10.2980443984       -0.2011611587       -3.0338088865
 H       -11.5940361679        0.6893721966       -3.1332052816
 H       -10.1738595080        0.5965844366       -5.3606607009
 H        -9.2492624340        2.1241356652       -5.7714410083
 H       -10.9688454926        2.1238968975       -5.2599700381
 H        -7.5142236689        9.1346534955       -3.7137294427
 H        -8.4594095315        8.2796862456       -2.3886437598
 H        -9.1209694692        8.3700760795       -4.1139381556
 H        -7.5038585128        7.1070339503       -5.9369500871
 H        -6.0074909161        6.4125627732       -5.2958299091
 H        -6.2700379326        8.2123247130       -5.4128727320
 H        -3.7404263791        5.7283012735        1.1437136714
 H        -3.0516769296        4.1890051491        0.6128666682
 H        -3.5933417927        4.4738324770        2.2791853689
 H        -4.4803710665        2.1957010519        0.2140460303
 H        -6.1687314989        2.0561225830        0.6697195427
 H        -4.8820701733        2.3386698162        1.9337539737
 H       -10.1711011405        6.7253381916        6.2140167776
 H        -9.3349192136        7.4951078764        4.8076585285
 H        -8.3666539139        7.0925060313        6.4007795367
 H        -8.7321907399        5.0346229058        7.2634920258
 H        -7.4298122413        4.1452126050        6.3405369521
 H        -9.0772826790        3.5690793225        6.3096199183
 H       -11.8361695129        1.6695102077        4.2878445351
 H       -13.0389088644        0.2998914400        3.9731034193
 H       -13.2814591910        1.8671083786        3.2084708001
 H        -9.8298991419       -0.8098844375        2.4688953095
 H       -11.4316643216       -1.2237700304        3.4948377732
 H       -10.3400434339       -0.0195015821        4.0353074317
 H       -16.8305859961        1.5677697612       -2.1266265415
 H       -17.9051252793        2.7810300142       -1.4144794543
 H       -17.1192884603        1.6220775010       -0.3944439984
 H       -15.7950414708        3.2761167856       -3.4961531959
 H       -15.0214946641        4.8043534085       -2.6842501269
 H       -16.8931301035        4.5365305174       -2.7743885994
 Na       -8.2112184781        2.6313522531       -0.3505685987
