117

 C       -16.9556117778        5.4858554801       -0.3742226717
 C       -15.9320205761        4.3470633032       -0.1271675470
 O       -15.4488941582        4.2304601417        0.9683112182
 C       -15.7019138405        3.3102727816       -1.3122096402
 C       -14.4177959700        2.4865681119       -1.1772166329
 O       -13.4694739522        2.6654849860       -1.8903591446
 C       -14.3721046068        1.4943385893       -0.0206135066
 C       -12.8396496681        1.2312306220        0.2740995809
 C       -12.5496166056        0.3847149889        1.4339415595
 O       -12.9471901280       -0.7293626207        1.5497304747
 C       -11.5514050481        0.9520963070        2.5873560314
 C       -10.6042317818        1.9445506126        1.9484912538
 O        -9.9399968648        1.4866621483        1.0200246894
 C       -10.5170768580        3.4292515646        2.2757452872
 C       -10.0533691912        3.6208889048        3.7801284242
 C        -9.7269965294        5.1053721480        3.9975740126
 O       -10.1619585357        5.9447258835        3.2303180908
 C        -8.6941243534        5.4783374460        5.0959047304
 C        -7.3286369109        5.6053565545        4.3162001484
 O        -6.4186736342        4.8581154428        4.6947449913
 C        -7.3390347133        6.6256631823        3.0485444058
 C        -6.2238571735        6.2082922807        2.0846774727
 C        -6.4478126460        4.8399408862        1.4009343722
 O        -7.5686153780        4.3153889659        1.3048668508
 C        -5.2844373674        4.0297105319        0.8048069363
 C        -5.4937454829        4.3237220708       -0.7990476785
 O        -6.5116284444        3.7979170089       -1.2822181321
 C        -4.6337324186        5.2432516516       -1.6312268542
 C        -5.3056481112        5.8011307209       -2.8704023321
 C        -6.3566023361        6.8600122511       -2.5901607623
 O        -6.1836361952        7.7034891174       -1.7616774622
 C        -7.4515516686        7.0510646767       -3.7663381629
 C        -8.1815829199        5.6713519212       -3.8953230595
 O        -7.5421543217        4.7162594716       -4.2865796705
 C        -9.6582580406        5.5051182410       -3.7234700612
 C       -10.2657015539        4.0795847439       -4.0724340564
 C        -9.7408111365        3.0200859394       -3.1619988571
 O        -9.4151703851        3.2459838125       -2.0066496296
 C        -9.7385822343        1.4964530209       -3.5911775384
 C        -8.4183283627        0.8689898847       -3.2001611855
 O        -7.9628858000        0.9236349626       -2.0719429711
 C        -7.6847009392        0.1299422982       -4.2981164833
 C       -10.8004231155        0.8268589557       -2.6556401347
 C       -10.1687574156        1.2976861355       -5.0371586931
 C        -8.3822573635        8.2312921819       -3.4162552849
 C        -6.6387058858        7.3255377378       -5.0989487721
 C        -3.8912949454        4.4068888021        1.3158710790
 C        -5.4082299229        2.4913942737        1.0493473650
 C        -9.0360904191        6.9283403533        5.7242872922
 C        -8.7154592578        4.4820895368        6.2991038306
 C       -12.4763347839        1.5374599785        3.7611527505
 C       -10.8344661797       -0.3334223487        3.1577238690
 C       -17.0188334211        2.4598651854       -1.2652199373
 C       -15.6282031432        4.1005794740       -2.7271625691
 H       -17.9877403019        5.0184942887       -0.4512952426
 H       -16.7559351222        6.0793746945       -1.2392774689
 H       -16.9639464146        6.1430206943        0.4366340312
 H       -15.0925697745        0.6665227898       -0.2201080613
 H       -14.8302297062        2.0460989651        0.8588415870
 H       -12.3373728174        2.2005595971        0.2527103632
 H       -12.3028082937        0.7807853860       -0.5731856796
 H       -11.5529482098        3.9271553567        2.0894891480
 H        -9.9118005305        3.9816721708        1.5997467872
 H        -9.1308548411        3.0832004939        3.9518172693
 H       -10.8183593762        3.5175780771        4.4814171025
 H        -7.0805287780        7.6619086669        3.3664948421
 H        -8.2455510438        6.6406812775        2.4350783334
 H        -5.2024223497        6.2579886872        2.4986934408
 H        -6.1808614024        6.9760449438        1.3341241421
 H        -3.7024300531        4.7814683498       -1.8939492815
 H        -4.4161906379        6.0106946873       -0.8820209038
 H        -5.6504342795        4.8947520531       -3.3906042258
 H        -4.5417339013        6.2589750807       -3.5196571188
 H       -10.0878155097        6.3158410251       -4.3833788363
 H        -9.6937888589        5.7513670227       -2.6559226921
 H       -10.1748673732        3.8436042340       -5.1336619800
 H       -11.3336825546        4.1485763288       -3.7179182849
 H        -7.7322995786        0.4877524680       -5.3370180986
 H        -8.1471586706       -0.8197942720       -4.3216728155
 H        -6.6504612165        0.0207006180       -4.0476749722
 H       -10.4191436933        0.7178633658       -1.5540234718
 H       -11.2843491002       -0.0823942979       -3.0638212424
 H       -11.6331663168        1.5056666265       -2.6406556699
 H       -10.1574887846        0.2424174672       -5.2731185379
 H        -9.4604540407        1.7355502902       -5.7219582641
 H       -11.1476433714        1.7908345533       -5.1607267550
 H        -7.7904378742        9.0156313548       -3.0377160986
 H        -9.0587481529        7.8942150976       -2.6240014173
 H        -8.9413416940        8.4822655630       -4.2468803947
 H        -7.3032404624        7.6875342218       -5.8779076686
 H        -6.1215823168        6.3616067912       -5.2691426710
 H        -5.9403260146        8.1047838746       -4.9099831872
 H        -3.5041948232        5.3711004890        1.0717474149
 H        -3.0860069020        3.6938982890        0.9674243027
 H        -3.8752295378        4.3857217909        2.3634966577
 H        -4.6027724976        2.0035866480        0.4905040119
 H        -6.3844691745        1.9745147096        0.9197656339
 H        -5.1137625402        2.4400427135        2.0749319811
 H       -10.0150119157        6.8087022172        6.1753072826
 H        -9.1534401888        7.5487913389        4.9051316259
 H        -8.1964208878        7.3276846980        6.2644737812
 H        -9.3327524319        4.9366814313        7.1359976247
 H        -7.6871030773        4.3721063412        6.6336640635
 H        -9.1022000433        3.5406997253        5.9963324123
 H       -11.8777235739        1.5425919433        4.6193861504
 H       -13.3623491397        0.8782467603        3.8026477059
 H       -12.7860679436        2.5361537950        3.5347931730
 H       -10.2239096989       -0.7744920085        2.3772737552
 H       -11.6996556615       -0.8828233021        3.3754695488
 H       -10.2759932571       -0.1417364141        4.0476166141
 H       -17.0039711934        1.7060090729       -2.0383339957
 H       -17.9079714899        3.0749429528       -1.4278324229
 H       -17.2491067342        2.0268239625       -0.2632172205
 H       -15.7037804120        3.3755614127       -3.4969840776
 H       -14.6641670017        4.5884776945       -2.7262352889
 H       -16.3699893465        4.8455739281       -2.7989902240
 Na       -8.3447886596        2.5917924619       -0.2006441189
