117

 C       -16.9075838092        5.5088456286       -0.3949469531
 C       -15.9261392069        4.3998376334       -0.1294786055
 O       -15.4531622829        4.1741329495        0.9671798121
 C       -15.7592975866        3.3558538312       -1.3186938515
 C       -14.4861031899        2.5455887211       -1.1480897767
 O       -13.5473436472        2.6891955184       -1.9002083522
 C       -14.3860962574        1.4852488021        0.0318942520
 C       -12.8899086667        1.3006231632        0.3386107421
 C       -12.6492903193        0.3930514655        1.4850293819
 O       -13.0000700749       -0.7882121001        1.5490457884
 C       -11.6629240479        0.9649636230        2.6021109292
 C       -10.6181838289        1.9582646079        1.9147719275
 O        -9.8271113757        1.5368733110        1.0845094035
 C       -10.5177859244        3.4553424162        2.3131730224
 C       -10.0436906490        3.6620859074        3.7071002909
 C        -9.8627817479        5.1476361187        3.9824958657
 O       -10.2731124331        6.0529291400        3.2729760451
 C        -8.8367464061        5.5154207770        5.0521023992
 C        -7.4025659563        5.5930665772        4.2712916904
 O        -6.4299481221        4.9480154463        4.6568224933
 C        -7.1964128595        6.6023738256        3.1758118043
 C        -6.1346598814        6.2124500183        2.0204787275
 C        -6.3968382550        4.8676141099        1.3783134431
 O        -7.5183338919        4.4444661498        1.3659912730
 C        -5.1767209157        3.9563052445        0.7238074515
 C        -5.4926621687        4.2535096192       -0.7852408677
 O        -6.5161285758        3.7640039963       -1.3339327326
 C        -4.6005771758        5.2056046708       -1.5850258540
 C        -5.3387201080        5.6844036534       -2.8332479964
 C        -6.3030501680        6.8690607090       -2.6496710380
 O        -6.1319115451        7.7242333285       -1.8238105840
 C        -7.5081866535        6.9635407354       -3.6345381590
 C        -8.2189912861        5.5270343483       -3.9678022515
 O        -7.4649533557        4.6644060256       -4.3462376429
 C        -9.7663398405        5.4659845427       -3.8206494244
 C       -10.1514627390        4.0535729243       -4.1659337584
 C        -9.6809459982        3.0648663958       -3.1519696986
 O        -9.3786148235        3.4394331089       -2.0652906310
 C        -9.7305431725        1.5366785867       -3.5679726572
 C        -8.3863212398        0.7670427871       -3.1831382770
 O        -8.0066477492        0.8102593641       -2.0101961788
 C        -7.6637906704       -0.0062660930       -4.2946657882
 C       -10.8209453531        0.8091211467       -2.5675589501
 C       -10.2836514349        1.3695650228       -5.0343922403
 C        -8.4197101805        8.2173652234       -3.3467299531
 C        -6.6730500245        7.3021320023       -4.9530889802
 C        -3.7652320826        4.3494287492        1.1703657160
 C        -5.4823482852        2.4912099971        1.1074559275
 C        -8.9964191860        6.9559944728        5.6446825929
 C        -8.7048646679        4.5547253776        6.2949653486
 C       -12.4831051415        1.6370293937        3.8186205960
 C       -10.8144281246       -0.1827045081        3.2000369165
 C       -16.9752638462        2.4694512226       -1.3441424656
 C       -15.5330085603        3.9850784645       -2.7199289499
 H       -17.8455685726        5.0672612659       -0.1304614680
 H       -16.9272707100        5.7273830847       -1.4323343820
 H       -16.7928493245        6.4614911216        0.1518380988
 H       -14.8144553024        0.5465380844       -0.2562918585
 H       -14.9667720692        1.8019830746        0.8947980819
 H       -12.2991750072        2.2478221046        0.2977771478
 H       -12.4353597465        0.8131528945       -0.5460503218
 H       -11.4867124895        3.9309393381        2.0906577457
 H        -9.8155063760        4.0229989130        1.6280526294
 H        -9.0395809026        3.1889478215        3.8023495267
 H       -10.7420645139        3.4533895124        4.5355428068
 H        -6.6563526294        7.4317271537        3.6821626755
 H        -8.1187982760        6.9792661079        2.6595464461
 H        -5.0596441144        6.4580031613        2.2721996613
 H        -6.2964913265        6.9420091353        1.2179635559
 H        -3.6754684009        4.6555159718       -1.8500037404
 H        -4.2770907654        6.0710598372       -0.9285018565
 H        -5.7712791257        4.7525037652       -3.2475218095
 H        -4.5996624543        5.9824397847       -3.5480538593
 H       -10.1726025225        6.1816767067       -4.5318086134
 H        -9.8146411214        5.7603879248       -2.7971017200
 H        -9.7562733628        3.9014261607       -5.2008697240
 H       -11.1798495520        3.9413400477       -4.1155521943
 H        -7.7727643675        0.3791707316       -5.3056819649
 H        -8.0511954972       -1.0470765442       -4.3592440611
 H        -6.6335929674       -0.0161188295       -4.0575586371
 H       -10.3176101598        0.6658808321       -1.5922587342
 H       -11.2300978728       -0.0921956362       -2.9565499190
 H       -11.6745482344        1.4721731199       -2.3679092572
 H       -10.4937442033        0.3227507634       -5.2154747336
 H        -9.5253287449        1.5950851921       -5.8208362047
 H       -11.1031195749        2.0153182487       -5.1379046880
 H        -7.6844055456        8.9420774543       -2.9501846617
 H        -9.1759666580        8.0480789694       -2.6161551140
 H        -8.8569324960        8.5267126077       -4.2968855044
 H        -7.3363899070        7.7374122995       -5.6493387718
 H        -6.3451915538        6.3708093220       -5.2262123127
 H        -5.8212954671        8.0190611441       -4.7860773903
 H        -3.3097249559        5.3168725605        0.8775919353
 H        -3.0385531149        3.6427139133        0.9150281750
 H        -3.7610723310        4.3654525199        2.2959915063
 H        -4.6926144886        1.8641369354        0.6848445500
 H        -6.4647728705        2.1291390530        0.8348779804
 H        -5.3865371166        2.4952559684        2.2117956152
 H        -9.8928515054        6.8582362475        6.2383477768
 H        -9.1559232205        7.6473679722        4.7982769200
 H        -8.0254293844        7.2825524882        6.0431222739
 H        -9.5267328692        4.7343124615        7.0178233726
 H        -7.7592240290        4.7590826559        6.7727586974
 H        -8.7492917197        3.5385270341        5.8985738810
 H       -11.7648570838        1.8837131451        4.6134449833
 H       -13.1724939087        0.8522876921        4.1135667584
 H       -13.0053811961        2.5073644173        3.4959387073
 H       -10.2358978371       -0.4968143092        2.3249373101
 H       -11.5638581562       -0.9354713185        3.4881577044
 H       -10.1717540776        0.1553343675        3.9695589164
 H       -16.8221504738        1.6312131246       -2.0548549222
 H       -17.9378723861        2.8924466648       -1.5709733733
 H       -17.0991357408        2.0984703806       -0.3059423122
 H       -15.2374491762        3.1539043978       -3.3634518066
 H       -14.7400932090        4.7273293898       -2.6358213887
 H       -16.4201276744        4.5044178206       -3.0921329337
 Na       -8.3749872802        2.4626514261       -0.2003810187
