117

 C       -16.7911072545        5.6027945628       -0.4919689980
 C       -16.0437590945        4.3342721216       -0.2177315579
 O       -15.4289841233        4.1323379563        0.8128844202
 C       -15.8777639656        3.3167016130       -1.4598540501
 C       -14.5031265367        2.5711488800       -1.1689585856
 O       -13.5799689589        2.6836574730       -1.9134477750
 C       -14.4619717700        1.5836800044        0.0838116165
 C       -12.9799764217        1.4036968792        0.5325112861
 C       -12.6736582734        0.3823008024        1.6465258163
 O       -13.1734594403       -0.7166186947        1.8250290146
 C       -11.6106727174        1.0287667782        2.7698304042
 C       -10.6305534284        2.0024493112        2.0836117032
 O        -9.7508456026        1.6351106743        1.2840410419
 C       -10.7379117739        3.5548487501        2.3588102118
 C        -9.6481235841        3.8870117864        3.4354366754
 C        -9.7873273312        5.3487367285        3.8925196436
 O       -10.6185088520        6.1744938021        3.5316613823
 C        -8.6591780364        5.8026676698        4.9385154573
 C        -7.3477845076        5.6603905348        4.1329766270
 O        -6.4454135686        4.8538528624        4.4447132938
 C        -6.9317266168        6.7072416313        2.9889325691
 C        -5.8409429165        6.0106635276        2.2627590811
 C        -6.3444412721        4.7354093215        1.5081532477
 O        -7.5471042738        4.4631085651        1.3991588920
 C        -5.1955717432        3.9109342969        0.8002174710
 C        -5.4318936148        4.0374267864       -0.7664210038
 O        -6.3536282742        3.4173715049       -1.3463972890
 C        -4.6304245686        5.0637344204       -1.5545669303
 C        -5.1877193098        5.4657213635       -2.9399354200
 C        -6.2829909180        6.6159175908       -2.7359924995
 O        -6.1913377978        7.3037811303       -1.7717722868
 C        -7.4314230356        6.8980205797       -3.7284946631
 C        -8.0813070554        5.5232592179       -4.1755617363
 O        -7.3511224590        4.6266661859       -4.5427556008
 C        -9.6261184783        5.4179844554       -4.1577666642
 C       -10.2252321010        4.0208144412       -4.2809712507
 C        -9.7706526741        3.0538303461       -3.2834622858
 O        -9.3771676009        3.4824513934       -2.2393745146
 C        -9.7601689450        1.4885850922       -3.4202739124
 C        -8.4716871159        0.8125994804       -3.0313967886
 O        -7.9784816787        0.8548799136       -1.9213962288
 C        -7.8186251920       -0.0618934728       -4.1172807255
 C       -10.8027177387        1.0780645775       -2.3624731114
 C       -10.2706406478        1.0437922290       -4.8645832543
 C        -8.3056380542        7.9314962550       -3.0430874936
 C        -6.8707119757        7.5505968272       -5.0870931134
 C        -3.7929862031        4.4098473026        1.2754789120
 C        -5.3142976732        2.4282826641        1.2915707034
 C        -8.9765136302        7.2910770160        5.3299084985
 C        -8.7523116187        4.8640607663        6.1669458474
 C       -12.6775727730        1.6078656137        3.7693221196
 C       -10.9289316081       -0.1533353699        3.5608105493
 C       -17.0261400503        2.3512085540       -1.5316263959
 C       -15.8262318904        4.1033744236       -2.7873994154
 H       -17.2720270092        5.9989047919        0.4573930071
 H       -17.5687216236        5.4772946595       -1.2311263741
 H       -16.0773838824        6.3533924341       -0.8379451262
 H       -14.8353519224        0.5779166020       -0.2382438111
 H       -15.1962302353        1.9028805867        0.8938994108
 H       -12.6510707050        2.3720405015        0.8801866991
 H       -12.4021646900        1.2659605636       -0.3739525037
 H       -11.7539300510        3.8867382793        2.7481243768
 H       -10.5532002289        3.9282500954        1.3872318413
 H        -8.6255382086        3.8872648620        3.0573589947
 H        -9.7061371455        3.2044805462        4.2466454038
 H        -6.4769527008        7.5633462581        3.5082921388
 H        -7.7042395402        6.9693746560        2.2896970586
 H        -5.0575149684        5.8863894936        3.0232552803
 H        -5.3258421095        6.5691065598        1.5380846476
 H        -3.6004675387        4.8149456325       -1.4712096961
 H        -4.7117558560        6.0204451962       -1.0245522306
 H        -5.6236564634        4.5848748136       -3.4586262088
 H        -4.3249232511        5.7716930042       -3.5402670777
 H        -9.9464658136        6.1708582936       -4.9590078890
 H        -9.8975645099        5.7322223602       -3.1330618448
 H       -10.0344049236        3.4947827111       -5.2677215460
 H       -11.3395018046        4.1294232886       -4.1504606074
 H        -7.6715233895        0.5087502562       -5.0656937700
 H        -8.4974218349       -0.8433908459       -4.4479179570
 H        -6.9132049540       -0.5220453988       -3.8000580328
 H       -10.5766334328        1.6319162269       -1.3723678916
 H       -10.7623588422        0.0038882059       -2.1040482714
 H       -11.7921294376        1.4391363837       -2.6362295000
 H       -10.2721967308       -0.0495625936       -4.9015087321
 H        -9.6639208602        1.3718763237       -5.7202649551
 H       -11.3054384692        1.3644401562       -4.9942083019
 H        -7.8446682851        8.9112740378       -3.0347736241
 H        -8.5418722652        7.6161502074       -2.0201249495
 H        -9.1656603010        7.8803193552       -3.6511301983
 H        -7.6547575924        7.5164962578       -5.8749443876
 H        -6.0499417587        6.9112397699       -5.4234359037
 H        -6.5636810735        8.5897964235       -4.7795544487
 H        -3.7481482459        5.4797995679        1.1490745281
 H        -2.9806131295        4.1068115545        0.6167351318
 H        -3.4341987658        4.1106042132        2.2363426035
 H        -4.4655703663        1.9104008827        0.8385378136
 H        -6.2764138733        1.9916775949        1.0225638184
 H        -5.2668890139        2.4325062937        2.3631484916
 H        -9.9491055121        7.2283776142        5.7830751439
 H        -8.9494666935        7.8606490321        4.4706823903
 H        -8.1731235594        7.6794473906        5.9223812983
 H        -9.8074056984        4.4753938804        6.2806360259
 H        -8.6380415023        5.5177529320        7.0098770710
 H        -8.0791974549        4.0378299077        6.1406537550
 H       -12.1027606770        2.0962447179        4.5312983818
 H       -13.2490065442        0.7520506396        4.1990961368
 H       -13.2470018063        2.3355562261        3.2288400419
 H       -10.1846018081       -0.6502466664        2.9020280285
 H       -11.7552902478       -0.8093973893        3.7863152916
 H       -10.4806670262        0.3158011566        4.4022262364
 H       -17.0321025569        1.7150615723       -2.3869194396
 H       -17.9493890563        2.8701436512       -1.6430945170
 H       -17.0817909077        1.7386027210       -0.6087087868
 H       -15.2657944727        3.4965155990       -3.4956521030
 H       -15.2592292234        5.0459440595       -2.6133731075
 H       -16.8125597774        4.3961167689       -3.1127194457
 Na       -8.2960373181        2.5316170379       -0.3668969001
