117

 C       -16.8109618278        5.5787162668       -0.5626780841
 C       -16.0234270877        4.3438411496       -0.2163121498
 O       -15.4761717617        4.1337480602        0.8638640625
 C       -15.8564049512        3.3258236354       -1.4104187108
 C       -14.5546210465        2.5301526825       -1.1638388169
 O       -13.6402589034        2.7249229295       -1.9733347837
 C       -14.4744725511        1.5361637445       -0.0524530231
 C       -12.9705849127        1.4437740918        0.5172623133
 C       -12.7129748901        0.5031205436        1.6667072306
 O       -13.1774993134       -0.6082394128        1.7879192021
 C       -11.7306545920        1.0799985509        2.8190384042
 C       -10.7040664460        2.0258808175        2.1163221612
 O        -9.8267810351        1.5814534695        1.3842868466
 C       -10.7549900110        3.6067821545        2.4548590426
 C        -9.5772044751        3.9816917091        3.3570797876
 C        -9.8236083743        5.3646870312        3.9247494006
 O       -10.6945723584        6.0622665539        3.4993850319
 C        -8.7314797846        5.8953849903        4.9566369635
 C        -7.2900289443        5.7591138907        4.2040750443
 O        -6.6290904747        4.8093442188        4.4528453157
 C        -6.9746495423        6.6291767134        3.0228249010
 C        -5.8481375068        6.0489878733        2.1387795011
 C        -6.2374509080        4.7433099163        1.4069758916
 O        -7.3679795713        4.4314873107        1.3037001902
 C        -5.1144135273        3.8544851570        0.7843567464
 C        -5.3706219212        3.9675806461       -0.7357476221
 O        -6.2473622673        3.3408371637       -1.3136681807
 C        -4.4997175670        5.0505130652       -1.5880044315
 C        -5.2172331625        5.4065653916       -2.8808715359
 C        -6.2513231354        6.4937700106       -2.7199652581
 O        -6.2203244407        7.1568810686       -1.6770591535
 C        -7.4192941210        6.8394535918       -3.7868207926
 C        -8.0564787393        5.4393311942       -4.2336264014
 O        -7.3245143623        4.5900605674       -4.6666754377
 C        -9.5986818902        5.4024939670       -4.2165244657
 C       -10.2023609950        3.9938957862       -4.4200453547
 C        -9.7168234376        3.0856880573       -3.2355708109
 O        -9.3164020541        3.5482778632       -2.2085062610
 C        -9.9016224497        1.4727027233       -3.3601155404
 C        -8.4696214664        0.8077337127       -3.0861204740
 O        -7.9799919641        0.9339015485       -1.9615024599
 C        -7.6494736233       -0.1050774566       -4.0392714495
 C       -10.8770975634        1.0355145200       -2.2922979095
 C       -10.3988887846        1.0431788135       -4.7735322955
 C        -8.3586395410        7.8569987428       -3.0904822573
 C        -6.9075477481        7.5981994050       -5.0651967842
 C        -3.7499266133        4.3419465063        1.2015298428
 C        -5.2642871784        2.3664566791        1.2423299017
 C        -8.8927760684        7.3615740373        5.2061142867
 C        -8.7706400485        5.0254840888        6.2491446695
 C       -12.5469391178        1.7738417244        3.8355761158
 C       -11.0106555673       -0.1540454463        3.5190189041
 C       -17.0966302900        2.3358127936       -1.4686110746
 C       -15.7376944706        3.9996743804       -2.7632727881
 H       -16.9724334423        6.1396004216        0.2903414564
 H       -17.7995063159        5.2815851045       -0.9014077940
 H       -16.3091920019        6.2399217221       -1.3346272335
 H       -14.8890972736        0.5430794811       -0.3478020480
 H       -15.1889860116        1.9147601674        0.7232430349
 H       -12.6909521458        2.5069454213        0.7540594713
 H       -12.2844060315        1.1279019411       -0.2975433579
 H       -11.6772821196        3.9016922542        2.9091788230
 H       -10.6329275492        3.9921911133        1.3871978814
 H        -8.6117417041        4.0442577757        2.8802849562
 H        -9.4507985911        3.2460037705        4.1314672356
 H        -6.6514081755        7.5892198459        3.4613338300
 H        -7.9046983895        6.7395376206        2.4143090542
 H        -5.0267660621        5.8800924885        2.8578080726
 H        -5.3489122834        6.7215777117        1.4729332133
 H        -3.5288959400        4.6295376090       -1.8071649244
 H        -4.2719430262        5.9913256972       -1.0855565943
 H        -5.6123484104        4.4724107748       -3.3669173047
 H        -4.4308450473        5.7463123418       -3.5470510712
 H        -9.7524337147        6.1085949995       -5.0794644891
 H       -10.0211943957        5.8119489209       -3.2704594797
 H       -10.0334917308        3.5155635137       -5.4595280466
 H       -11.2537837348        4.0646933433       -4.2702865101
 H        -7.2948046549        0.3304469426       -4.9317289964
 H        -8.3646707720       -0.8703757362       -4.4061407097
 H        -6.8916231469       -0.6307648414       -3.5090571326
 H       -10.5699780549        1.4105682634       -1.3340293429
 H       -11.0030816528       -0.0703388128       -2.1495105154
 H       -11.8729668610        1.6139504972       -2.5101856350
 H       -10.7017056298       -0.0231995477       -4.6726400647
 H        -9.5739948007        1.0863485029       -5.5437813975
 H       -11.2720486255        1.5426907932       -5.1252143245
 H        -7.7616327883        8.7350816062       -2.9166993016
 H        -8.6281503260        7.4703303005       -2.1840149600
 H        -9.2132428450        8.0455363746       -3.7124813553
 H        -7.7484004644        7.6329553591       -5.7451521684
 H        -6.1816799812        7.0137315023       -5.5587042079
 H        -6.5712039700        8.6288678534       -4.7071067747
 H        -3.5717086137        5.3396376495        0.7787420064
 H        -2.9531187073        3.7742920488        0.9413301418
 H        -3.6386629315        4.3688362962        2.3143410433
 H        -4.5906762322        1.7061929748        0.7194258441
 H        -6.2842396048        2.1997995987        1.0291021061
 H        -5.2131212012        2.3165794567        2.3437913050
 H        -9.8712927875        7.4745663258        5.5379923073
 H        -8.6050447577        7.9571076935        4.3293320468
 H        -8.1916302400        7.6008261398        5.9782943870
 H        -9.7333604573        4.7006435745        6.6113067224
 H        -8.3045452193        5.6246771137        7.0338253966
 H        -8.1315697479        4.1471528422        5.9747722658
 H       -11.7752779085        2.3345702880        4.3764894938
 H       -13.0286526263        1.0993004384        4.4892582386
 H       -13.1403863063        2.4805472734        3.3220836369
 H       -10.2062447893       -0.4533345018        2.8954987743
 H       -11.7492756900       -0.9558277767        3.5769780272
 H       -10.6915567486        0.2487949158        4.4233681640
 H       -17.1208454905        1.7443865779       -2.4113506054
 H       -18.0344526388        2.8508641277       -1.5424632907
 H       -17.1250425375        1.6124438049       -0.6622789944
 H       -15.4825814016        3.2679444559       -3.5102986630
 H       -14.9690996557        4.7282689855       -2.7644969394
 H       -16.6699789702        4.5051933870       -2.9722061261
 Na       -8.3606224448        2.6829332156       -0.1802375866
