117

 C       -16.8632131611        5.5961353464       -0.5369324905
 C       -16.0226487519        4.3451913573       -0.2556305758
 O       -15.5970021456        4.1799971786        0.8573362844
 C       -15.8499496418        3.2753946073       -1.4634582926
 C       -14.5612684599        2.3842937699       -1.2527726009
 O       -13.5850186417        2.6800960456       -1.9507854816
 C       -14.4306258827        1.4402562688       -0.0687613033
 C       -12.9900420836        1.5444157381        0.5042520300
 C       -12.7774386608        0.6322668255        1.6909447402
 O       -13.2134085658       -0.4815148238        1.7152453089
 C       -11.7779738604        1.2135745666        2.8997487518
 C       -10.7082796198        2.0541934080        2.1768952062
 O        -9.8870291889        1.5412916457        1.4084641850
 C       -10.7180760608        3.5218095631        2.4390790812
 C        -9.6135631400        3.9327217814        3.3308909633
 C        -9.7734086654        5.4188812678        3.8391769646
 O       -10.7700539048        6.0350179300        3.5574684253
 C        -8.6625277249        6.0225741119        4.9233931299
 C        -7.3332174497        5.6256358572        4.1712669046
 O        -6.7081135738        4.6759072583        4.5481876008
 C        -7.0502633805        6.5680939268        2.9953193384
 C        -5.9043081359        6.0697532842        2.0861907252
 C        -6.1505383033        4.7625818627        1.3973418938
 O        -7.3071465732        4.4011708001        1.1329824984
 C        -5.0277238576        3.9282219797        0.7692113069
 C        -5.2813487429        3.9754778544       -0.7799530775
 O        -6.1417259260        3.3024177048       -1.2329677184
 C        -4.4574235501        4.9045426693       -1.6540505631
 C        -5.2157182238        5.3507426633       -2.9428939002
 C        -6.1739625257        6.4664642374       -2.6570920143
 O        -6.2892219000        7.0453165052       -1.5653237806
 C        -7.3398808033        6.7940666318       -3.7561910308
 C        -8.0310505756        5.5282605225       -4.3808861779
 O        -7.4355118570        4.5311973445       -4.7605607248
 C        -9.6161806194        5.4010672872       -4.2757751287
 C       -10.0300192550        3.9000668576       -4.4423826697
 C        -9.6703872086        3.0351939560       -3.2283454132
 O        -9.2749719734        3.6015778311       -2.1986571161
 C        -9.8861778447        1.4461406936       -3.3777923790
 C        -8.4711409270        0.7780018836       -2.9676562971
 O        -7.9880531313        1.1040970034       -1.8954103806
 C        -7.6990888863       -0.0584353502       -3.9491611086
 C       -10.8585687461        0.9985322831       -2.2684367847
 C       -10.4876572706        1.0450099721       -4.7215953618
 C        -8.5080743492        7.7124017869       -3.0966727410
 C        -6.7872680231        7.4886194159       -5.0127197141
 C        -3.4973979924        4.2365432398        1.1313707770
 C        -5.2721107842        2.3467381441        1.1724443333
 C        -8.9452715559        7.5996138961        5.1928013948
 C        -8.7289170096        5.2265194169        6.2397100950
 C       -12.5844169548        1.9921381864        4.0194795800
 C       -11.0094501958       -0.1471306638        3.3724512519
 C       -17.1423005897        2.3468857029       -1.3134435102
 C       -15.7346991932        3.9762074164       -2.8141402916
 H       -16.7181138773        6.2970417446        0.2640343724
 H       -17.9224147951        5.3444461479       -0.4764802763
 H       -16.6396121093        6.1039808856       -1.4498118239
 H       -14.5890800955        0.4090562488       -0.3849321470
 H       -15.1771707315        1.6349087903        0.6636230304
 H       -12.7039219220        2.6339192257        0.5288953206
 H       -12.3039376216        1.0241232489       -0.2295298687
 H       -11.6959968885        3.6921273018        2.8098776468
 H       -10.5161839338        3.9561207815        1.4152178479
 H        -8.6405386592        3.7586303688        2.8470829830
 H        -9.5244398330        3.2691429576        4.2617387991
 H        -6.9007319979        7.5701625177        3.4444006076
 H        -7.9432574887        6.5552630335        2.3165329742
 H        -4.9297620248        6.1144231819        2.5511330632
 H        -5.7106851410        6.7981939604        1.2211628856
 H        -3.4872951251        4.4118412304       -1.9320897549
 H        -4.1317284347        5.7770004704       -1.0672540183
 H        -5.7513350099        4.4862613284       -3.3282766080
 H        -4.4810005159        5.5872492257       -3.7278356561
 H        -9.9781101252        5.8892982393       -5.1557888632
 H       -10.0197452020        5.8899113043       -3.3721668304
 H        -9.5368473895        3.5190649059       -5.2991874623
 H       -11.0931205900        3.8152192660       -4.6505583265
 H        -7.3773414725        0.6229875002       -4.6995898405
 H        -8.2635494621       -0.7778516441       -4.5089282633
 H        -6.8485527534       -0.5891357355       -3.4805226879
 H       -10.4452659908        1.0361977014       -1.2788302871
 H       -11.0986434712       -0.0758196865       -2.4176711594
 H       -11.7597116234        1.6290597793       -2.2877167627
 H       -10.9869378519        0.0726418370       -4.5995795621
 H        -9.7743674055        1.0321373571       -5.5407095019
 H       -11.3505642308        1.7007144330       -5.0001242704
 H        -7.9526446680        8.4480203945       -2.5883976079
 H        -9.0009623251        7.1188073272       -2.3365898001
 H        -9.1950658406        8.1274733476       -3.8171919886
 H        -7.6742120682        7.6957661651       -5.5686236251
 H        -6.2647447736        6.7697903889       -5.6545732776
 H        -6.2628350113        8.3292004955       -4.7475186386
 H        -3.0542952654        5.0893569741        0.6434134115
 H        -2.7884113421        3.3756102881        0.9667557494
 H        -3.3895681032        4.3477985139        2.1999821455
 H        -4.6536465252        1.6977685484        0.5702399976
 H        -6.3384346046        2.2059803786        1.0319311504
 H        -5.1256315698        2.2479757754        2.2448880335
 H        -9.9808697062        7.5981116754        5.5594237590
 H        -8.7095563652        8.2467118466        4.3106584178
 H        -8.3249934526        7.8834611404        6.0577859891
 H        -9.6807822143        5.2508604711        6.7180458797
 H        -7.9865501460        5.6901514411        6.9311865603
 H        -8.4377945884        4.1794542462        5.9871742936
 H       -11.8840794576        2.4807041386        4.6756605173
 H       -13.1246320206        1.2816386033        4.5759712173
 H       -13.1913526214        2.7403567394        3.5174686773
 H       -10.2382158376       -0.3397402713        2.6930813916
 H       -11.7091008233       -0.9485918199        3.3224685355
 H       -10.6638052843        0.1405731157        4.3615033903
 H       -17.2257012263        1.6703379693       -2.1863852391
 H       -18.0796685069        2.9296064697       -1.4334101786
 H       -17.1565302084        1.6912476826       -0.4683514221
 H       -15.7490457654        3.2838296069       -3.6595321051
 H       -14.7958147180        4.4878240214       -2.8973315287
 H       -16.5496768190        4.6930856978       -2.9372689168
 Na       -8.4033911748        2.8025324762       -0.0609851806
