117

 C       -16.9105425121        5.6074257179       -0.5257706239
 C       -16.0669091185        4.3500725092       -0.2962869378
 O       -15.6189321001        4.0835021394        0.7929695997
 C       -15.8882264974        3.2940777946       -1.4748600223
 C       -14.5239586108        2.4719635535       -1.2286994343
 O       -13.5675985803        2.5683946682       -1.9460992327
 C       -14.4031315049        1.4360840265       -0.0769610261
 C       -13.0581884403        1.6508087683        0.5171086212
 C       -12.7692125161        0.7410710088        1.7025057814
 O       -13.2825056160       -0.3595756077        1.7878701245
 C       -11.7810688512        1.1995683905        2.8750253147
 C       -10.7355534839        2.1359802414        2.1696294121
 O        -9.9690006629        1.5384164015        1.4204515655
 C       -10.6177122755        3.6978445586        2.3240302739
 C        -9.6160602423        4.0202839234        3.4636346600
 C        -9.8122912192        5.4440143637        3.9949820420
 O       -10.7876569969        6.0936625163        3.6171905427
 C        -8.7156414667        5.9917045592        4.8826223877
 C        -7.3623132627        5.6858391229        4.1876063348
 O        -6.7342714266        4.6504004649        4.5059545805
 C        -7.0410262591        6.5072541688        2.8969024580
 C        -5.8431735836        6.0630947466        1.9924626741
 C        -6.0340647295        4.7817839403        1.2860640524
 O        -7.2642497730        4.4653132046        1.1217260864
 C        -4.9372732298        3.8373030494        0.7407995896
 C        -5.1726121107        3.9353641617       -0.8594128032
 O        -6.1419663905        3.2921975910       -1.2257054267
 C        -4.3991914649        4.8396497394       -1.7647283498
 C        -5.2728772909        5.3263008251       -3.0169380366
 C        -6.3918491313        6.3269609812       -2.6017090800
 O        -6.3019801241        6.9035391544       -1.5659249683
 C        -7.3988765377        6.7027894719       -3.7109709837
 C        -8.1042704116        5.4076193297       -4.2203152709
 O        -7.4240933127        4.6242363589       -4.8511094895
 C        -9.6190323029        5.2552280885       -4.3678767266
 C        -9.8962385511        3.8036484327       -4.5426189460
 C        -9.6534883761        3.0113893810       -3.2422064662
 O        -9.2790352301        3.5340510528       -2.1750895859
 C        -9.8684208326        1.5035943932       -3.3192442282
 C        -8.4311470044        0.9833710185       -2.8893070384
 O        -7.9973113354        1.1673861988       -1.7849351137
 C        -7.8164185259        0.0438490171       -3.8906028475
 C       -10.8504148191        1.0109772844       -2.1562653659
 C       -10.4011187556        1.0452463489       -4.6516495452
 C        -8.4291191513        7.6190560811       -3.0866905786
 C        -6.5952894856        7.4236407508       -4.9436485603
 C        -3.4374951036        4.1463680167        1.1176914447
 C        -5.1959866632        2.3835231162        1.1777616268
 C        -8.9950051258        7.5295576722        5.0455100525
 C        -8.7871071847        5.4049066163        6.2322188713
 C       -12.5306239862        1.8894674244        4.0138163239
 C       -11.1036078467       -0.0951627439        3.3999259398
 C       -17.1154681400        2.4144947252       -1.2443920521
 C       -15.8569381884        3.8930142570       -2.8319244568
 H       -16.6355764731        6.4812738042        0.1408242817
 H       -17.9473142030        5.4008038534       -0.2940761507
 H       -16.8133744019        5.9493057049       -1.5015737775
 H       -14.5142122868        0.4900919541       -0.5533596193
 H       -15.0963403279        1.4501193880        0.7269444125
 H       -13.1596358941        2.6991767653        0.8006123005
 H       -12.1995294414        1.5545177745       -0.1456627800
 H       -11.6793486645        3.9239398637        2.5777817610
 H       -10.2437748150        4.0989564284        1.4316615599
 H        -8.5489679022        3.8541416372        3.1124686606
 H        -9.6462592523        3.2875740710        4.3409317014
 H        -6.8684403791        7.5527947594        3.2138062815
 H        -7.8808407533        6.4746763166        2.2124391646
 H        -4.8587553619        6.0930334589        2.4806343616
 H        -5.7016751058        6.9245637714        1.2660376287
 H        -3.5032102375        4.2699700827       -2.1488698125
 H        -3.9443667439        5.6358328395       -1.1347807110
 H        -5.5593909677        4.4092110472       -3.4679403988
 H        -4.6213127994        5.7982759303       -3.7713751198
 H       -10.0480076847        5.7968631299       -5.1985850409
 H       -10.0144916642        5.6056766256       -3.4379348873
 H        -9.3286529347        3.3843993899       -5.3211667607
 H       -10.9502167348        3.6690278336       -4.8750841062
 H        -7.3675699396        0.6265303479       -4.7370768166
 H        -8.4292168897       -0.6818025328       -4.3730043844
 H        -7.0426789360       -0.4876023482       -3.3409330145
 H       -10.4547504089        0.9159490970       -1.1224704830
 H       -11.0359825320        0.0044512599       -2.4087391093
 H       -11.7145157651        1.5405384530       -2.1549790357
 H       -10.7096535014        0.0148637014       -4.6728803413
 H        -9.7828829770        1.3501650736       -5.4622364996
 H       -11.3897511616        1.5680260966       -4.7665127860
 H        -7.8013164696        8.3572881555       -2.5745224956
 H        -9.0068416248        7.0111927499       -2.3120931874
 H        -9.0795804982        8.0551051331       -3.8355350241
 H        -7.2482177314        7.8865765123       -5.6423221384
 H        -6.0642096567        6.6549617242       -5.4858600931
 H        -5.9640147604        8.0846917898       -4.4290350321
 H        -3.1389273159        5.1111592670        0.7029790465
 H        -2.6177819336        3.3972452702        0.8244704348
 H        -3.3050722869        4.1969027670        2.1753153731
 H        -4.5665392039        1.7347578598        0.5622759881
 H        -6.2901698133        2.2028166725        1.0893416357
 H        -4.9515538929        2.3265902631        2.2161686178
 H       -10.0363693977        7.6379699396        5.5099356452
 H        -8.8122439988        8.0071617652        4.0848443811
 H        -8.2618076934        7.8712513508        5.8477081483
 H        -9.6589633777        5.9191446215        6.7131018367
 H        -7.8954834430        5.6955456205        6.7919282229
 H        -8.9434409343        4.3449901975        6.2538664990
 H       -11.8811602746        2.2371553837        4.7779564582
 H       -13.1633599755        1.0773838175        4.4361905275
 H       -13.1148918053        2.6901225183        3.5581975957
 H       -10.4057788823       -0.4726983665        2.6369880974
 H       -11.8892775864       -0.8076490611        3.4935865709
 H       -10.6749347882        0.2570866091        4.3467485740
 H       -17.1899060185        1.6064174801       -1.9542018196
 H       -17.9909773642        3.0329853709       -1.4972307756
 H       -17.1917044956        1.9059083026       -0.2682738469
 H       -15.8920174496        3.1126179601       -3.6306292390
 H       -14.8502838432        4.3756120970       -2.9874695942
 H       -16.6802150166        4.5938372769       -3.0626687084
 Na       -8.4449364743        2.8123316407       -0.0981897994
