117

 C       -16.8899955358        5.5746070362       -0.5048445068
 C       -16.0051085109        4.3449150123       -0.3139510116
 O       -15.5991405098        4.0498337020        0.8066459721
 C       -15.9003343193        3.2844170167       -1.4804196608
 C       -14.6028376703        2.4601472855       -1.2761864070
 O       -13.6959240649        2.6469512347       -2.0569028586
 C       -14.4389267211        1.5364341933       -0.0647585523
 C       -13.1746574053        1.8579854747        0.7472940903
 C       -12.8109145772        0.7816344516        1.7800005014
 O       -13.3960906452       -0.2718443524        1.8757138095
 C       -11.7271180006        1.1764334983        2.8525444524
 C       -10.6892968092        2.1122128762        2.1113240665
 O        -9.8938358354        1.6948353870        1.2768797117
 C       -10.5962062669        3.6876678243        2.2961895801
 C        -9.7176939883        3.9710362391        3.5534210909
 C        -9.9088390007        5.4903099665        3.9974010871
 O       -10.8480350883        6.1624963894        3.6851468748
 C        -8.7252386077        6.0577640107        4.8720402732
 C        -7.3695431228        5.6856725278        4.0922176668
 O        -6.6916336674        4.7508811558        4.4140455978
 C        -6.9549581273        6.5376972665        2.7944610954
 C        -5.6963451649        6.0930382280        2.0507542243
 C        -6.0334106519        4.7559245250        1.2833627787
 O        -7.1762226183        4.4226191074        1.0930529051
 C        -4.9036454081        3.7629056937        0.6697018894
 C        -5.2161260593        3.8857203911       -0.9095179709
 O        -6.1900249580        3.2932879835       -1.3503205298
 C        -4.3779891033        4.7602965020       -1.8568982879
 C        -5.2383424941        5.2136801669       -3.0341121959
 C        -6.3393526039        6.1837146190       -2.5834693093
 O        -6.3929983040        6.7291783609       -1.5004668099
 C        -7.4165440741        6.6712224694       -3.6346166433
 C        -8.0398595931        5.3949222673       -4.4114796056
 O        -7.3026979016        4.5939708101       -4.9345664646
 C        -9.6065223310        5.2064367646       -4.3843930626
 C        -9.9124174942        3.7457250229       -4.4877922741
 C        -9.7602583986        3.0106506907       -3.1759892052
 O        -9.3618718711        3.6841565504       -2.2518053938
 C        -9.9044783104        1.4483351893       -3.2269688381
 C        -8.4507402909        0.8830433706       -2.8031772733
 O        -7.9400283336        1.1734518061       -1.7264806465
 C        -7.7402790868        0.0700603497       -3.8454312815
 C       -10.8450828038        1.0499878513       -2.0592904743
 C       -10.3102954290        0.9443948662       -4.5689284382
 C        -8.3886830521        7.7397113566       -3.0330981689
 C        -6.5278388976        7.2967189276       -4.6808775757
 C        -3.5051324684        4.2312706793        1.0759851119
 C        -5.1379449357        2.3581382528        1.2103762697
 C        -8.9564903381        7.6203603107        4.8343161468
 C        -8.8125396587        5.4377530563        6.4116404345
 C       -12.5720623167        1.8685877616        3.9825088698
 C       -11.0803988295       -0.0244508445        3.4608624794
 C       -17.1216478658        2.3749872384       -1.2440868835
 C       -15.9398506195        3.8215949603       -2.9220727054
 H       -16.6158709112        6.4404497523        0.0745012984
 H       -17.8932245557        5.3148219132       -0.1744823117
 H       -16.8934918866        5.9159221426       -1.5845735921
 H       -14.3089523486        0.5261744285       -0.4419819921
 H       -15.3206524790        1.4717951366        0.6030540691
 H       -13.3189642712        2.8089815734        1.1954775249
 H       -12.3228616058        1.9000860974        0.1179365996
 H       -11.6231686840        4.0797095977        2.3874611521
 H       -10.0477171906        4.0210079964        1.4485621645
 H        -8.6478201337        3.6838670220        3.4179212230
 H        -9.9490072852        3.3743209025        4.4136740460
 H        -6.7304339672        7.5269054850        3.1669999184
 H        -7.7085128794        6.6254513964        2.0329474508
 H        -4.8340743763        5.9113765745        2.7432394821
 H        -5.3275617236        6.9494856744        1.5398587859
 H        -3.5043189673        4.2224433275       -2.2089029293
 H        -3.9621571744        5.6420343606       -1.3334937540
 H        -5.5580053679        4.2944403705       -3.5608817691
 H        -4.5942498147        5.7218175363       -3.7377243319
 H       -10.2070447216        5.6863666351       -5.1969772796
 H        -9.8668734942        5.6391394874       -3.4207277602
 H        -9.1602339545        3.2732062738       -5.2180353421
 H       -10.8588405305        3.5643951272       -5.0087869232
 H        -7.4583631847        0.6741552810       -4.7415416673
 H        -8.2811140081       -0.8208062267       -4.2491151347
 H        -6.8675949819       -0.3420657945       -3.3689926797
 H       -10.5229609521        1.2615091560       -1.0768398439
 H       -10.9050927556        0.0069420883       -2.0632440214
 H       -11.8415097491        1.4706745074       -2.2175637127
 H       -10.2866252485       -0.1249237336       -4.6538331855
 H        -9.7141371574        1.4841477838       -5.3068622447
 H       -11.3261864079        1.1407801198       -4.7668037058
 H        -7.7790896354        8.6642100436       -2.7812837672
 H        -8.9133870824        7.3152260929       -2.1702158630
 H        -9.0962049244        7.9318884574       -3.8755665359
 H        -7.0177430223        7.8706463755       -5.4584599708
 H        -6.0571078111        6.4675067418       -5.1178111352
 H        -5.7775273325        7.8911192876       -4.0489915453
 H        -3.3193797142        5.3186990808        0.8651011925
 H        -2.6976414904        3.7171095843        0.6531269496
 H        -3.3749992978        4.0667114740        2.1863371588
 H        -4.4644023067        1.6926521384        0.6592937243
 H        -6.1917758447        2.1299374938        1.0825012033
 H        -4.8982007815        2.3631458560        2.2842370407
 H        -9.8993783923        7.8352020903        5.3546418268
 H        -8.9585783655        7.8771796129        3.7653374719
 H        -8.1425639204        8.0947678415        5.4172163628
 H        -9.6145378971        6.0136044947        6.9274479309
 H        -7.8791825834        5.4757560860        6.9488093170
 H        -9.1498226156        4.4027074666        6.3573135342
 H       -11.9483104775        1.9916577692        4.8879900078
 H       -13.2906798928        1.0460704659        4.2154322000
 H       -13.0896256575        2.7644267752        3.6531052666
 H       -10.6396989385       -0.5923799417        2.6030497151
 H       -11.9784582639       -0.6197149022        3.7415778705
 H       -10.4758894951        0.2997385163        4.2865767108
 H       -17.0621339627        1.4291027462       -1.7823329359
 H       -17.9827183842        2.8791183446       -1.6156544962
 H       -17.2671956470        2.0383704138       -0.2042623159
 H       -15.8828601228        2.9292088064       -3.6074708086
 H       -15.0837791046        4.4739343275       -3.2594272016
 H       -16.9377279547        4.2742342732       -3.1765810974
 Na       -8.4507746772        2.7588979609       -0.1834826361
