117

 C       -16.8419120260        5.5630711732       -0.5250156422
 C       -16.0631607825        4.2786828061       -0.2987900051
 O       -15.5132596569        4.0910974597        0.7696143484
 C       -16.0103230246        3.2104544044       -1.4688007324
 C       -14.5973614796        2.5058577718       -1.3008707324
 O       -13.7251983738        2.6732375144       -2.1762297089
 C       -14.4860542202        1.6227789407       -0.1037255555
 C       -13.3406617386        2.0377033563        0.9146866839
 C       -12.9099978373        0.8666093505        1.8147159073
 O       -13.4775851453       -0.1751414542        1.9203468163
 C       -11.6871367390        1.2299107253        2.8207992431
 C       -10.6092244830        2.1529749077        2.0576128477
 O        -9.9015258712        1.6360306560        1.2055031618
 C       -10.6799440162        3.6934807187        2.3933326195
 C        -9.9174067289        3.9671631454        3.6927620559
 C        -9.9350359556        5.4467473885        4.0119511018
 O       -10.8918567434        6.1274171414        3.7228037095
 C        -8.6992308442        6.1696416558        4.7026209420
 C        -7.3365613104        5.7594957807        4.0258058426
 O        -6.6615759293        4.8337144093        4.3676698391
 C        -6.9132002225        6.6030990747        2.8583713213
 C        -5.7130050155        5.8373541389        2.1760525587
 C        -6.0926873507        4.6606143155        1.3250400309
 O        -7.2264831648        4.4143430439        1.1109199012
 C        -4.9260991318        3.8526142244        0.6175882660
 C        -5.2692160878        3.8199094147       -0.8931636377
 O        -6.2450901061        3.2825238771       -1.3909317164
 C        -4.3682278070        4.6445795672       -1.8328096507
 C        -5.2343258009        5.1684345749       -2.9522091951
 C        -6.3333225910        6.0515065410       -2.5146844495
 O        -6.4035710441        6.4526629488       -1.3148391456
 C        -7.3167680831        6.6170211322       -3.7082493403
 C        -8.0141182879        5.4353048005       -4.3898178094
 O        -7.3412301189        4.6275392522       -5.0066295453
 C        -9.5320109840        5.2614655123       -4.4034626700
 C        -9.9445056192        3.7482394820       -4.5798719942
 C        -9.6892392673        3.0558653309       -3.1601162827
 O        -9.5123781346        3.7028513093       -2.1463333254
 C        -9.8610425927        1.4048279924       -3.1293631601
 C        -8.4139029254        0.8034319188       -2.7756472239
 O        -7.8770767257        1.0457713216       -1.6826869430
 C        -7.5834477379        0.0725073158       -3.7758721352
 C       -10.8866983339        1.0519993950       -1.9840880576
 C       -10.3422061726        0.7818116013       -4.4249649568
 C        -8.3147054111        7.6525626908       -3.0847511618
 C        -6.3619967629        7.4000292928       -4.6957488415
 C        -3.5144231669        4.4266085728        0.9667879219
 C        -5.1305092365        2.3455375420        1.1818966532
 C        -8.8377014813        7.6964730922        4.7608606715
 C        -8.7132313439        5.6134202167        6.1752091202
 C       -12.5427618628        2.0325060844        3.9501287444
 C       -10.9098747296       -0.0483542760        3.4305984407
 C       -17.2285724267        2.2336587657       -1.2541772343
 C       -16.0339088864        3.8077010803       -2.9294149554
 H       -16.4588081757        6.3387801035        0.0875004209
 H       -17.8905172947        5.4321520865       -0.1852884353
 H       -16.7986175977        5.9572831324       -1.5759545813
 H       -14.2619850202        0.5415874510       -0.3304780429
 H       -15.4811219737        1.6189182848        0.3925481559
 H       -13.7141908206        2.8077521813        1.5684539383
 H       -12.4678189477        2.3994498800        0.3927840670
 H       -11.7065485362        3.9368997522        2.5164624638
 H       -10.1652391722        4.2538995976        1.5478740070
 H        -8.9292812943        3.6248807817        3.7182340636
 H       -10.3024636320        3.4591685235        4.5251621466
 H        -6.6058186595        7.6029072387        3.1109835962
 H        -7.7702997787        6.6670059622        2.1648883119
 H        -4.9476882119        5.6112638418        2.9052356270
 H        -5.1691577564        6.5548397479        1.6119532014
 H        -3.5113562281        4.1153383057       -2.1762758865
 H        -3.9693276993        5.5193683756       -1.3445471316
 H        -5.6633752048        4.2921285135       -3.5110598703
 H        -4.6075975513        5.6850484113       -3.6797347627
 H        -9.7816204753        5.7641264967       -5.3720764683
 H       -10.1034145824        5.8004478244       -3.5670336266
 H        -9.4209625009        3.2138707060       -5.4730792590
 H       -11.0067998790        3.6194780844       -4.8234128893
 H        -7.5563052172        0.4919450427       -4.7566835898
 H        -7.9823706515       -0.9649844276       -3.8967076145
 H        -6.5615781357       -0.0766943811       -3.3710116031
 H       -10.7852293915        1.5430712296       -1.0649294086
 H       -10.8778465057       -0.0205348434       -1.7032314597
 H       -11.9037949029        1.3274841913       -2.4100406801
 H       -10.4187034058       -0.2774702926       -4.2417889089
 H        -9.6824453793        1.0425875768       -5.2504418288
 H       -11.3247958132        1.0341953817       -4.7186665422
 H        -7.7428146445        8.5731676424       -2.9235536683
 H        -8.6859119563        7.2403351265       -2.1774503335
 H        -9.1407193430        7.8207073076       -3.8151339474
 H        -7.0621142711        8.0175647059       -5.3237015145
 H        -5.7728772488        6.7161491479       -5.3599348877
 H        -5.7609590579        8.0604919421       -4.0532757539
 H        -3.1994513725        5.4615200589        0.8524079333
 H        -2.8786752213        3.8473153140        0.3515892370
 H        -3.2338547163        4.0723403632        1.9907487793
 H        -4.3397626256        1.7632648565        0.7272691927
 H        -6.1018802981        2.0209680104        0.8684868102
 H        -5.0136077350        2.3271211510        2.2874601138
 H        -9.6193098674        7.9206990398        5.4189678474
 H        -9.1274055351        7.9722286215        3.7297836057
 H        -7.9789240611        8.1511911950        5.1588288031
 H        -9.4378086705        6.0694522966        6.7897735120
 H        -7.6969029858        5.6010518267        6.5911534051
 H        -8.9808720835        4.5279883965        6.0955147065
 H       -11.9058819119        2.0300827279        4.8746348089
 H       -13.3513580080        1.3612849338        4.1465115254
 H       -12.9675670253        3.0120363525        3.6589568920
 H       -10.6309203420       -0.6075908554        2.5680762827
 H       -11.7494745587       -0.6266455246        3.8791795385
 H       -10.1507435575        0.2893474463        4.1364130204
 H       -17.0797890354        1.2383663480       -1.7008386011
 H       -18.1327652320        2.6828728699       -1.6392645117
 H       -17.3966878537        1.9944841510       -0.2314005371
 H       -15.8076594029        3.0269490511       -3.6742382057
 H       -15.3344983715        4.6123972835       -3.1341450268
 H       -17.0750088729        4.1103542432       -3.1890852997
 Na       -8.3661638771        2.7850562404       -0.2954906154
