117

 C       -12.4048456327        9.9765637491       -3.9570679396
 C       -11.4711683319        8.8742168520       -4.3418140438
 O       -11.4262426667        7.7815659944       -3.7849003956
 C       -10.5034565772        9.1691432849       -5.5553823173
 C        -9.1617594265        9.6732013880       -5.0132912892
 O        -8.7144119196       10.7533508811       -5.3723120607
 C        -8.4699876182        8.8541675035       -3.8933650028
 C        -7.6340934924        9.6773099787       -2.8819594463
 C        -7.1983277391        8.8339788432       -1.6848582924
 O        -6.5169015414        7.8442977917       -1.8654947197
 C        -7.7665642290        9.1059183802       -0.2239715897
 C        -8.9958370520        8.1205353270       -0.0892262782
 O       -10.0930797803        8.7010461751       -0.0798834826
 C        -8.7268995236        6.6092252598       -0.1088634071
 C        -9.6345104058        5.8826101231       -1.0978042661
 C        -9.4557097929        4.4190672864       -1.0650001769
 O        -8.5649269884        3.8591178302       -0.4411239506
 C       -10.6443018783        3.5659659281       -1.8126100530
 C       -11.6540618802        2.9886066343       -0.8900567743
 O       -11.4472726633        1.9453526706       -0.2459107555
 C       -12.9992853766        3.7471475275       -0.5329869545
 C       -13.1523574027        3.5531623640        0.9554563029
 C       -11.8625587689        3.8691648054        1.6939472595
 O       -10.8721663935        4.2310700752        1.0590380193
 C       -11.7091018147        3.7275318645        3.2244808750
 C       -11.1081103017        2.2110595908        3.5058561690
 O       -10.1296358437        1.8242484531        2.9503049594
 C       -12.0536698184        1.2862346967        4.4570222405
 C       -11.3923306773       -0.0880665160        4.6874793060
 C       -11.5983231362       -1.1772409608        3.5366189654
 O       -12.3254467455       -0.8396686686        2.6030291749
 C       -11.0201647959       -2.5661216445        3.6031373035
 C        -9.8975495667       -2.7881738540        2.5557350990
 O        -8.8165054957       -3.2519425744        2.9544908362
 C       -10.2767809445       -2.6404744507        1.0336015564
 C        -8.9187157161       -2.5521955406        0.2640358354
 C        -8.3640023570       -1.1714312121        0.5279124897
 O        -9.1571352188       -0.3066822388        0.7666509344
 C        -6.8281256626       -0.8575000492        0.2421254929
 C        -6.4246724147        0.1429234804        1.3234846379
 O        -7.0992569265        1.1082457635        1.5803075797
 C        -5.0508889727       -0.0404554520        1.9816117721
 C        -5.9659927136       -2.1733810502        0.1403871501
 C        -6.8226608749       -0.1049347176       -1.0906899174
 C       -10.4932175469       -2.9207663630        5.0319136543
 C       -12.2343030411       -3.5390999818        3.0853794853
 C       -10.6104517786        4.6877670128        3.7895254569
 C       -13.0522370486        3.9949208039        3.8904327415
 C       -11.2721125554        4.4137311966       -2.9021574671
 C        -9.8544355241        2.3871211397       -2.4834896534
 C        -6.6366526336        8.6767164078        0.7232394156
 C        -8.1788951937       10.5502590145       -0.1425559594
 C       -10.3783389755        7.8953847649       -6.4415538326
 C       -11.1613449431       10.2792828950       -6.4870834818
 H       -11.9512007581       10.9690592060       -4.2692911227
 H       -12.5157108520        9.9199109189       -2.9193723653
 H       -13.4518342751        9.8691364848       -4.2995433175
 H        -7.9254297855        8.0474599482       -4.3153001821
 H        -9.2998998085        8.2701261719       -3.4778089659
 H        -8.2706233424       10.6105072658       -2.6387114968
 H        -6.7007574265        9.8837997914       -3.4241154349
 H        -9.0203616388        6.1419568643        0.8785842877
 H        -7.6711408832        6.4992712460       -0.2676962523
 H        -9.5164897802        6.2774894245       -2.0583475979
 H       -10.6543733216        6.1632671604       -0.7932475405
 H       -13.8704268996        3.4310545823       -1.0391586910
 H       -12.7690482705        4.7607979175       -0.8835727665
 H       -13.5351801486        2.4837784614        1.0330550218
 H       -13.8829480253        4.2376817884        1.3841756734
 H       -13.0937161489        1.1672120429        4.0571526419
 H       -12.0417328085        1.7441102264        5.4716625271
 H       -11.7875984833       -0.6069763346        5.5230271308
 H       -10.3871757108       -0.0468423296        5.0668487469
 H       -10.7579320308       -1.6521817074        1.0376961140
 H       -11.0269545054       -3.3940454820        0.6695624819
 H        -8.8357175841       -2.8334848617       -0.7619013662
 H        -8.2572062216       -3.2512146325        0.8291534855
 H        -4.9133212561       -1.1181531680        2.1945357684
 H        -4.8398595462        0.5118106771        2.8362476251
 H        -4.2531913987        0.2434489249        1.2405481267
 H        -6.4595453382       -2.7917425090       -0.7220672280
 H        -6.0078807911       -2.8529846556        0.9401326395
 H        -5.0399240126       -1.9304813551       -0.2405655582
 H        -7.1985347003        0.9138888531       -0.9436268716
 H        -7.3723760651       -0.5895591358       -1.8081696263
 H        -5.8436704299       -0.0687668598       -1.5190456769
 H       -11.2732203747       -3.4039712230        5.6508680044
 H        -9.9691563499       -2.0973763182        5.5123527781
 H        -9.7358402403       -3.7814034019        4.8474567944
 H       -12.9670232491       -3.5680143839        3.9157340156
 H       -11.7847792170       -4.5221050911        2.9851896285
 H       -12.7601991608       -3.1461254697        2.2318229890
 H       -10.8326136267        5.7368844008        3.5991321453
 H        -9.6719671747        4.3880660481        3.3127033867
 H       -10.5096091876        4.4355278620        4.8534085497
 H       -13.1893082785        5.0656357428        3.8853753788
 H       -12.9761873155        3.5636659257        4.8849947181
 H       -13.9783019114        3.5884688989        3.2907278580
 H       -12.0758665024        3.8588136876       -3.2770173675
 H       -10.6295566798        4.8171739244       -3.7272354631
 H       -11.8239857499        5.2745760381       -2.5126246126
 H        -9.4319250547        1.7048522518       -1.7416142169
 H        -9.1100619209        2.8195529738       -3.1335785876
 H       -10.4399894139        1.7304337560       -3.1552946003
 H        -5.8654879206        9.4233872229        0.6546478662
 H        -6.2401311160        7.7018453101        0.5073743472
 H        -6.9804169749        8.6851434266        1.7511979137
 H        -7.3786410418       11.1963633617       -0.5804038511
 H        -8.2736965626       10.9505537034        0.8965183515
 H        -9.1652935999       10.7511489646       -0.6043431544
 H       -10.0003764362        7.0497717304       -5.8647707298
 H        -9.6136766609        8.1190123092       -7.2695387589
 H       -11.3530815747        7.6988943110       -6.7877883960
 H       -10.8810455762       10.0633659003       -7.5200392695
 H       -10.7538176887       11.2715821589       -6.2153465285
 H       -12.2322794082       10.4311966090       -6.5083253291
 Na       -9.3042965034        1.9952793458        0.7949945016
