117

 C       -16.8455648693        5.5993018639       -0.5886189800
 C       -16.1038405453        4.3077890289       -0.3520388943
 O       -15.4688706653        4.0923857985        0.6482389004
 C       -16.1146716122        3.1568670391       -1.4650956072
 C       -14.6706499990        2.5027726895       -1.3089241512
 O       -13.7890945602        2.6361188784       -2.1269348041
 C       -14.4538102486        1.5630942582       -0.1051414652
 C       -13.4341373025        2.1394331249        0.9675291378
 C       -12.9447406535        1.0007356711        1.8592207586
 O       -13.4901768854       -0.0898794075        1.9146442981
 C       -11.7489904360        1.2913126406        2.8023858740
 C       -10.7229054073        2.2186566624        2.0691757943
 O        -9.9562379247        1.6933146706        1.2540222076
 C       -10.5861234584        3.6269580288        2.4340603189
 C        -9.9767402029        3.9739924018        3.7698417740
 C        -9.9473461090        5.5170051096        3.9513627433
 O       -10.9653491449        6.1612118562        3.7330695447
 C        -8.6991376446        6.2237721371        4.6070355410
 C        -7.3578692805        5.7675065771        3.9172469125
 O        -6.7349040965        4.8377347884        4.4812178413
 C        -6.7969065538        6.6209942143        2.7721111433
 C        -5.6501203336        5.7643723124        2.1613950944
 C        -6.1811964979        4.6805345908        1.2956268314
 O        -7.3950140928        4.3610189547        1.1784795772
 C        -4.9635615991        3.8195929491        0.6116084667
 C        -5.2952676238        3.8667088111       -0.8321923545
 O        -6.2542904114        3.2359136231       -1.2834043152
 C        -4.3511720144        4.5557158785       -1.8405758933
 C        -5.1330144419        5.1371863484       -3.0411514697
 C        -6.3090642596        6.0549891599       -2.5254096877
 O        -6.5284065575        6.1630872347       -1.3284377586
 C        -7.1740993964        6.6525713125       -3.6157828129
 C        -7.9470617522        5.4319700825       -4.4479227162
 O        -7.2844772415        4.6236863594       -5.0615309576
 C        -9.4965700051        5.3180549316       -4.4218398482
 C        -9.9422082048        3.7655009412       -4.4468838581
 C        -9.7594736920        2.9665755219       -3.1940914625
 O        -9.6084829991        3.5675394442       -2.1324587696
 C        -9.7622596902        1.4176657732       -3.1014484642
 C        -8.3183463571        0.8656801481       -2.6955153142
 O        -7.9107152116        0.8944439739       -1.5700911536
 C        -7.5245669195        0.0576484952       -3.7456601427
 C       -10.7759422536        1.1136904676       -1.9458760206
 C       -10.3565206152        0.6983846634       -4.3221208406
 C        -8.2757095766        7.5896939036       -3.0368190031
 C        -6.2846784374        7.4449521727       -4.7008183109
 C        -3.6209575049        4.4186537907        0.8679684449
 C        -5.0717429654        2.3748307412        1.1403622080
 C        -8.7886244763        7.7549497890        4.6765626779
 C        -8.5656053596        5.7056934060        6.0594734555
 C       -12.3469948248        2.0251026996        3.9759689569
 C       -10.9455515409        0.0823326520        3.2822203004
 C       -17.2061623850        2.1666538992       -1.3004192764
 C       -16.1954530801        3.8231971077       -2.8298511452
 H       -16.4725624605        6.3696556488        0.1365872487
 H       -17.9060783290        5.4719830208       -0.3418553739
 H       -16.7291716948        6.0048383850       -1.5329277190
 H       -13.9786646436        0.5775720438       -0.3476415284
 H       -15.4015182588        1.3189511438        0.3671434629
 H       -13.9935914561        2.7412895821        1.7407615152
 H       -12.6139420386        2.7478745428        0.4990992273
 H       -11.5644553551        4.1435973750        2.4201000298
 H        -9.9014541844        4.0407768720        1.6457483907
 H        -9.0217242229        3.6056528006        3.9938863818
 H       -10.5038635125        3.6112934452        4.6536748967
 H        -6.4546929862        7.6074624655        3.1491994798
 H        -7.6471360083        6.8086851664        2.0721496516
 H        -5.0692295177        5.3651674948        2.9541148119
 H        -4.8738301114        6.3687137835        1.6546701256
 H        -3.5941482818        3.7950934041       -2.0665446628
 H        -3.7870898645        5.3920089775       -1.4552198269
 H        -5.6031205794        4.3101061844       -3.5625091951
 H        -4.4182828967        5.5614587983       -3.7852108806
 H        -9.8092093579        5.7488464221       -5.3784084949
 H       -10.0255244995        5.8743824485       -3.5844998585
 H        -9.5152376277        3.2024516709       -5.2495057524
 H       -11.0341282767        3.6640866867       -4.6733045093
 H        -7.7471040917        0.3646325939       -4.7590288955
 H        -7.8414586077       -0.9596861079       -3.6806685862
 H        -6.4297935749        0.0367787664       -3.6128537802
 H       -10.6568852178        1.7723407820       -1.0096177851
 H       -10.7523362987        0.0607745726       -1.5168255814
 H       -11.7578858668        1.3409789324       -2.3547307694
 H       -10.6600136877       -0.2858225144       -3.9789530069
 H        -9.7869190261        0.6607198347       -5.2172780144
 H       -11.3320288823        1.1522080652       -4.6363411551
 H        -7.8028883837        8.4676427042       -2.7435653611
 H        -8.7671921436        7.0819785947       -2.2069760637
 H        -8.9555064745        7.7919418963       -3.8180684245
 H        -7.1402193976        7.8836341725       -5.2568987533
 H        -5.7732665954        6.7089613219       -5.4109409379
 H        -5.6636109821        8.2005831639       -4.3025399387
 H        -3.5248936698        5.4412981858        0.5736161395
 H        -2.9694880264        3.8438869627        0.1004941779
 H        -3.2026316732        4.3418970684        1.8262225386
 H        -4.1446978318        1.9499103320        0.7874536502
 H        -5.9392132416        1.8446681229        0.7176184990
 H        -5.0088071363        2.3785722190        2.2063099717
 H        -9.5672995169        8.0926237296        5.3530555231
 H        -9.1270123782        7.9670506475        3.7074159286
 H        -7.9098973358        8.2188738469        5.0387862391
 H        -9.3914264212        5.9932365427        6.7053324344
 H        -7.5666262050        6.0102719996        6.4044304059
 H        -8.5161746124        4.6113732407        6.1021159535
 H       -11.6305812091        2.0799134921        4.7734762975
 H       -13.2332668972        1.4992971667        4.3099725428
 H       -12.7231731012        2.9961871780        3.5878633073
 H       -10.6292962555       -0.3994672700        2.3964582342
 H       -11.6101304482       -0.5315523412        3.8233961497
 H       -10.1561482056        0.5178591977        3.9141032513
 H       -16.9909883582        1.2262110218       -1.7749389650
 H       -18.1929773541        2.5639987304       -1.5980983999
 H       -17.3190047371        1.8971679136       -0.2644796213
 H       -15.9263303307        3.2502857167       -3.6892303355
 H       -15.5589557661        4.6829358081       -2.8486053441
 H       -17.1965025771        4.1467697435       -3.0198500262
 Na       -8.2928889465        2.8371084710       -0.3465565145
