117

 C       -17.0235636940        5.6253290980       -0.6789612217
 C       -16.2144667660        4.3512743294       -0.3513391680
 O       -15.5811584031        4.2831985030        0.6823510312
 C       -16.1190045931        3.1706858603       -1.4340290667
 C       -14.7741140010        2.4329173118       -1.3769186092
 O       -13.8457554437        2.6567567783       -2.1641150126
 C       -14.4875842510        1.4725442643       -0.2275017718
 C       -13.5620117784        2.0911589782        0.8571341221
 C       -12.9525101082        1.1217465574        1.8616629394
 O       -13.3716149122        0.0139664334        1.9487638270
 C       -11.6909771110        1.4968542990        2.8329974711
 C       -10.6567139427        2.3827994234        2.1569544381
 O       -10.0289008186        1.9055609839        1.2224768700
 C       -10.4021866350        3.8778586190        2.3710780879
 C        -9.8362210042        4.1974955364        3.7462696393
 C        -9.9016579818        5.7328014554        4.0396853106
 O       -10.8640681830        6.3856102267        3.7164989421
 C        -8.6725202196        6.3870164046        4.7261270428
 C        -7.3550446382        5.8217023445        4.0601827961
 O        -6.8541537949        4.7691725868        4.2628849741
 C        -6.8237278502        6.7166596793        2.8072683555
 C        -5.6899572427        6.0035487312        2.0493175648
 C        -6.0783448670        4.6483092834        1.3400920334
 O        -7.1974303852        4.2728087560        1.2996242241
 C        -4.9785530236        3.7971585603        0.5803676354
 C        -5.3202089928        3.6927807212       -1.0901891041
 O        -6.3039691684        3.1183641099       -1.4958020132
 C        -4.3536486877        4.3657065410       -2.0553763971
 C        -5.0491684497        5.1252607823       -3.1838584572
 C        -6.2833865536        5.7124929539       -2.7111272428
 O        -6.7085579005        5.7089868780       -1.5149739256
 C        -7.1521575410        6.5734159746       -3.6918183217
 C        -7.8616485657        5.4197796175       -4.4672638259
 O        -7.1737713935        4.6451966650       -5.1123953765
 C        -9.4099845370        5.0826565534       -4.2295536399
 C        -9.8036176312        3.6626060165       -4.3984202735
 C        -9.6215884003        2.8865748868       -3.0272145772
 O        -9.4739073074        3.6554652858       -2.1118549873
 C        -9.7803614062        1.3852959737       -2.8971054469
 C        -8.3645606622        0.7969056159       -2.6648312745
 O        -8.0211538604        0.7708018199       -1.4847608550
 C        -7.4595264355        0.1179243641       -3.6754138760
 C       -10.7362849035        0.9634198292       -1.7739706731
 C       -10.3366204272        0.8282849107       -4.2780977848
 C        -8.0755645894        7.5403708317       -2.8655094752
 C        -6.3776394987        7.3805291828       -4.7549226400
 C        -3.5708927749        4.2785361069        0.9239445451
 C        -5.1087150444        2.2383045782        1.1415191686
 C        -8.8816076390        7.8967564245        4.4492579631
 C        -8.6705994452        6.0111640337        6.2457331033
 C       -12.2783787809        1.9441694637        4.2238018671
 C       -11.0962312620        0.0031366998        3.0308680747
 C       -17.3304730646        2.1563268757       -1.2086632301
 C       -16.3027499133        3.7101399803       -2.8679208085
 H       -17.1330802345        6.2533155042        0.1354393069
 H       -18.0145696110        5.4047023581       -1.0549091355
 H       -16.4621517839        6.2066334552       -1.4836037860
 H       -14.1168200880        0.5228249741       -0.5237957540
 H       -15.4402498929        1.3273137081        0.2849504599
 H       -14.2215465800        2.8181853387        1.3159321310
 H       -12.7296612279        2.5972549829        0.3592381811
 H       -11.2625346661        4.5925035540        2.3251022023
 H        -9.7062754032        4.1259162706        1.5650602842
 H        -8.7833144265        3.8361575688        4.0397027538
 H       -10.4314329531        3.7117787064        4.5566708234
 H        -6.4912222124        7.7190821344        3.1011986727
 H        -7.6738167863        6.9128016407        2.1403466069
 H        -4.8556476204        5.8632851293        2.8253220976
 H        -5.1682112361        6.7122769021        1.4134644168
 H        -3.6730025441        3.5912090943       -2.4756438467
 H        -3.6684521567        5.0811027411       -1.5362896736
 H        -5.1451347555        4.4985608872       -4.0868795110
 H        -4.4318696474        5.9442695491       -3.4712643579
 H        -9.9804119294        5.6925941303       -4.9199320675
 H        -9.7204771244        5.3994108451       -3.2612913267
 H        -9.1442699112        3.1821432186       -5.1722729152
 H       -10.7585318893        3.5135917267       -4.8055839544
 H        -7.5398819815        0.5483254317       -4.6575585555
 H        -7.7531321746       -0.9549162374       -3.7600761944
 H        -6.4106939735        0.1482710900       -3.4345145948
 H       -10.2824751063        1.1503077036       -0.8963983947
 H       -10.8813714006       -0.0963832788       -1.7743148286
 H       -11.7309663449        1.4539586444       -1.7584522316
 H       -10.3376755230       -0.2842118713       -4.3396536409
 H        -9.7472700612        1.2010497774       -5.1743305200
 H       -11.3282446666        1.1675777162       -4.4903762364
 H        -7.4608739355        8.1807925337       -2.2002690159
 H        -8.8060188190        6.9890130201       -2.3529181768
 H        -8.5568529668        8.1857155408       -3.6365979973
 H        -7.0353499875        7.9208519099       -5.3711138261
 H        -5.7395183728        6.7343718058       -5.2507145739
 H        -5.7956950992        8.1337747187       -4.1755308643
 H        -3.3946191544        5.3717430295        0.7790673154
 H        -2.8334436177        3.7124296264        0.4880498711
 H        -3.5193733282        4.2390962280        2.0612508899
 H        -4.2691419825        1.6780869193        0.7257914304
 H        -6.0256461059        1.8185844827        0.7737325908
 H        -4.9445219691        2.2700262399        2.2432595056
 H        -9.8242074872        8.2317570405        4.9103770457
 H        -9.0566497423        8.1326496823        3.3497393516
 H        -8.1554970688        8.3776284591        5.1259117773
 H        -9.7119883937        5.8600979980        6.5085016732
 H        -8.1758259174        6.7701772696        6.8389656797
 H        -8.1045006094        5.1043262177        6.5161582711
 H       -11.4280280440        1.8115365210        4.8998729880
 H       -13.0698285818        1.2628564766        4.4922671097
 H       -12.7449576286        2.8978072194        4.2257476744
 H       -10.6156816715       -0.2602392157        2.0933722251
 H       -11.9458063946       -0.6339915253        3.3483318711
 H       -10.4169737613        0.1378323478        3.8277336186
 H       -17.3038941832        1.3339974490       -1.9604327746
 H       -18.2726758472        2.6712090299       -1.1860447464
 H       -17.3392001819        1.6466209260       -0.2286375992
 H       -16.4297315758        2.8670241546       -3.5624342839
 H       -15.4545884723        4.2701242458       -3.2725722882
 H       -17.1873220550        4.3162908329       -3.0976258821
 Na       -8.3875128445        2.7830649091       -0.1184554853
