117

 C       -17.3697564852        5.5858200751       -1.0051131622
 C       -16.4424865569        4.4599372155       -0.5290207289
 O       -15.7405142815        4.5515267697        0.4553688334
 C       -16.3568244517        3.1744367802       -1.4503903174
 C       -14.8889589472        2.6609221275       -1.1588735784
 O       -14.0090456663        2.7013874045       -1.9631386401
 C       -14.6090668864        1.9323714982        0.1720009203
 C       -13.1972353295        2.0273331128        0.7017694631
 C       -12.9611707088        1.1480728327        1.9140998899
 O       -13.4767476702        0.0672542997        2.0084546587
 C       -11.7674189686        1.5166132054        2.8974701819
 C       -10.8532635513        2.5716790759        2.2453940213
 O        -9.9343967103        2.2697995830        1.5125838086
 C       -11.0710364046        4.0126283521        2.5958515033
 C        -9.9957325092        4.4951333858        3.5724588526
 C        -9.8422279006        5.9953721833        3.6955755281
 O       -10.7009237476        6.8024496969        3.4507293842
 C        -8.5032470327        6.6321318004        4.3661296933
 C        -7.2240142235        6.1251339561        3.6768467009
 O        -6.5672252393        5.2328629084        4.2728763447
 C        -6.7155120956        6.6851906011        2.3254665124
 C        -5.6426617972        5.8122917207        1.8253664347
 C        -6.1414809092        4.5399147559        1.1652683951
 O        -7.3762632807        4.3049416163        1.1075344546
 C        -4.9955365878        3.6002106126        0.6188062261
 C        -5.1962889242        3.5166258387       -0.8170362239
 O        -6.1817208899        2.8479161616       -1.2229164344
 C        -4.2716411023        4.1310378461       -1.8168511057
 C        -5.2552170418        4.5934318685       -3.0154982118
 C        -6.2490829775        5.7011777878       -2.6026305917
 O        -6.3191208443        6.0177769532       -1.4013028065
 C        -7.0286875062        6.3993019763       -3.7399637769
 C        -7.8728285655        5.3389239723       -4.4704533888
 O        -7.4250337126        4.6543474865       -5.3549083933
 C        -9.3688086130        5.1567098436       -4.0226981867
 C        -9.8133175624        3.7311655477       -4.1989199862
 C        -9.5173817779        2.7731726449       -3.0169091237
 O        -9.2576038984        3.3449549996       -1.9966124585
 C        -9.7779728848        1.2441345751       -2.9664729540
 C        -8.4335239215        0.4841458009       -2.4064626069
 O        -8.2468491681        0.4225419257       -1.2147676558
 C        -7.3775696062       -0.0617116684       -3.4240431843
 C       -10.7512893405        0.9793759556       -1.8062902332
 C       -10.3261108403        0.6722869802       -4.2040391382
 C        -7.9199084095        7.4220386375       -3.0972660890
 C        -6.1033189630        7.1624709902       -4.7280851406
 C        -3.5708665656        4.1182853183        0.9480331115
 C        -5.2516423913        2.2458502393        1.3103731079
 C        -8.6699557074        8.1502422270        4.2900933391
 C        -8.5211261288        6.1999145656        5.8907688694
 C       -12.4862630653        1.9529960975        4.2250744264
 C       -10.8957874708        0.2251151917        3.1039777930
 C       -17.2753981615        2.0028999804       -1.1238567389
 C       -16.5443045722        3.5478223827       -2.9207438230
 H       -17.7094543439        6.2044914484       -0.1238416622
 H       -18.2011740692        5.2353300623       -1.6030234042
 H       -16.8485091099        6.2118840924       -1.6471140585
 H       -14.8995033705        0.8756623144        0.0884691615
 H       -15.2489447222        2.3919018280        0.9045001494
 H       -12.9281298027        3.0699812962        0.8622476897
 H       -12.5670829966        1.5968871784       -0.0668463849
 H       -12.0553950808        4.1407045537        2.9222914067
 H       -11.1896235629        4.6322071747        1.6672952490
 H        -9.0812116786        3.9936529905        3.3054557178
 H       -10.3477738070        3.9971729513        4.5642374427
 H        -6.4847521920        7.7329209299        2.3658256052
 H        -7.5807953729        6.6219918842        1.6304522009
 H        -5.0264379927        5.6131572932        2.7375997196
 H        -4.9831029148        6.3816373426        1.1229014112
 H        -3.4957747279        3.3769739452       -2.0819251946
 H        -3.7944539497        5.0725488284       -1.4915516672
 H        -5.7699372709        3.7443269073       -3.4675426929
 H        -4.6310072901        4.9878366563       -3.8048086067
 H       -10.0806849297        5.7432371751       -4.5499529822
 H        -9.5190781560        5.4735671290       -2.9618146986
 H        -9.4598420967        3.3608248432       -5.1583208551
 H       -10.8944584372        3.7352569629       -4.2703655672
 H        -7.0262023025        0.7521360419       -4.0343317505
 H        -7.8317243952       -0.7424184266       -4.1179092502
 H        -6.4648876579       -0.5337689547       -3.0306314251
 H       -10.5411402697        1.5835009097       -0.8761356256
 H       -10.7334623789       -0.0673200454       -1.6616647862
 H       -11.7287088979        1.1180708958       -2.0439318868
 H       -10.3529832527       -0.4156217303       -4.1403768117
 H        -9.7915938123        0.7969732555       -5.1215577344
 H       -11.3621839424        1.0722988997       -4.2754957001
 H        -7.4342575840        8.3126855813       -2.7835941377
 H        -8.4454961149        7.0127457918       -2.2028472915
 H        -8.6316988179        7.6631954421       -3.8598856496
 H        -6.7430678452        7.7887070966       -5.3395007489
 H        -5.5160330287        6.4771642113       -5.3800279280
 H        -5.4664045449        7.7632021145       -4.2084112321
 H        -3.3606945350        5.0258218240        0.4394477479
 H        -2.8994724493        3.2943995424        0.4874865380
 H        -3.3820012110        4.1321479350        1.9928346717
 H        -4.4675093927        1.6347211674        0.8783119535
 H        -6.1727915796        1.7883828624        0.9309061614
 H        -5.1361115344        2.3858038380        2.3766387600
 H        -9.5785986750        8.5458835365        4.8483614528
 H        -8.8725141383        8.3735183647        3.1944633818
 H        -7.7155206110        8.7095528375        4.4977175746
 H        -9.1285691714        6.8301128130        6.5161643218
 H        -7.5339298176        6.1762322437        6.4065971082
 H        -8.9389468942        5.1798828843        5.9830975081
 H       -11.7903201657        2.3521279027        4.9697168044
 H       -12.9733836178        1.0879491548        4.6171427376
 H       -13.2276530622        2.7657382586        4.0756222361
 H       -10.2164749639        0.2547117094        2.2964336414
 H       -11.6123566654       -0.5509141422        3.1373726750
 H       -10.2941399626        0.2798953991        4.0186123774
 H       -17.0443826602        1.1096289642       -1.7108233372
 H       -18.2931200077        2.2384392415       -1.5252927389
 H       -17.3510790951        1.8361569677       -0.0599370309
 H       -16.2223393255        2.7775165027       -3.6036257836
 H       -16.1283213642        4.4611459157       -3.2897661636
 H       -17.5861222087        3.7291582660       -3.1362507798
 Na       -8.1055736704        2.4106606698       -0.0574998498
