117

 C       -17.5800572186        5.4890530926       -1.0807126332
 C       -16.5302497487        4.4844890681       -0.5732437230
 O       -15.9089675747        4.7417351791        0.4252012272
 C       -16.3575834312        3.1245231977       -1.4650757099
 C       -14.9406474899        2.5635703246       -1.0774414414
 O       -13.9719460863        2.7349333363       -1.8228747570
 C       -14.7489441415        2.0484557448        0.3439760397
 C       -13.1968793252        2.0351874442        0.6733650524
 C       -12.9975608905        1.0991880395        1.8932694377
 O       -13.5616808541        0.0176338126        1.9800648223
 C       -11.7869862409        1.5237020161        2.9277790069
 C       -10.8555452320        2.6474018028        2.2947560532
 O        -9.8836718459        2.3246478318        1.5977820641
 C       -11.0200381673        4.1235430705        2.5576478693
 C        -9.8568604496        4.6268087906        3.5000165189
 C        -9.8560955542        6.1788448599        3.6434542242
 O       -10.7125054783        6.8987463198        3.1051590718
 C        -8.5571304330        6.7169720339        4.3374968213
 C        -7.2272398613        6.1132100781        3.6795472754
 O        -6.4459150644        5.4074619273        4.2228081611
 C        -6.8718373623        6.7836519958        2.2275024232
 C        -5.6126538148        6.0452677700        1.4690738169
 C        -5.9958784026        4.5806139412        1.1957248880
 O        -7.1309896535        4.2748693011        1.0185019276
 C        -4.8171912183        3.4861687727        0.7671982915
 C        -5.2266912740        3.2968162089       -0.8160697723
 O        -6.2051645697        2.7026439545       -1.1719288435
 C        -4.4564577908        4.0838419266       -1.8650970098
 C        -5.2715186993        4.5804642345       -3.0855105835
 C        -6.1772385292        5.7301160291       -2.6524875139
 O        -6.0577594971        6.1767389252       -1.5070831138
 C        -7.0553602368        6.4860296543       -3.7334777577
 C        -8.0259874885        5.3051048890       -4.3769691032
 O        -7.4299578446        4.5519107034       -5.1342210124
 C        -9.4618368331        5.0386280059       -3.9899859038
 C        -9.7860618500        3.5001719945       -4.1261655947
 C        -9.4539338715        2.7197993290       -2.9262344189
 O        -9.0135980415        3.3546074712       -1.9744755168
 C        -9.7821021020        1.2260548481       -2.8716647951
 C        -8.4125598647        0.3591441338       -2.3966707413
 O        -8.2315354766        0.2665296476       -1.1996031539
 C        -7.5545011117       -0.1939800805       -3.4850966560
 C       -10.9278926908        0.9494555788       -1.9010254617
 C       -10.1230068117        0.6816422593       -4.2715725913
 C        -7.7490527736        7.6974947523       -3.0674171439
 C        -6.0604786162        6.9174593868       -4.8307118971
 C        -3.4431962051        3.8725064931        1.1420479383
 C        -5.1554940094        2.1778382732        1.5332408876
 C        -8.4740411391        8.2898701968        4.2666130857
 C        -8.5864187134        6.2468281261        5.8114886834
 C       -12.4839341163        1.9939354774        4.2193263496
 C       -10.9660804396        0.2529049970        3.2639816053
 C       -17.4763657567        2.1139264345       -1.0423352431
 C       -16.3023292583        3.4452086986       -2.9686588788
 H       -17.7489199766        6.3090974506       -0.4537098877
 H       -18.4865513105        4.8986936150       -1.2553302816
 H       -17.3804010692        5.8325894036       -2.1660908273
 H       -15.2203071192        1.0622360629        0.4597558230
 H       -15.2869815671        2.7378155101        1.0544994274
 H       -12.8259915175        3.0278163900        0.8883660206
 H       -12.5797394089        1.6704057605       -0.1477120907
 H       -12.0112004431        4.5706517936        2.8870289654
 H       -10.9599644292        4.5788045554        1.5893124545
 H        -8.8835276136        4.3766773646        3.0512829329
 H       -10.0385195931        4.0857381801        4.3463437704
 H        -6.6057293152        7.8480881038        2.4008540272
 H        -7.7380677929        6.8487915962        1.5964551822
 H        -4.7396742099        6.1846828439        2.0920049808
 H        -5.4317562448        6.5290123200        0.5378811748
 H        -3.6849233416        3.4749359107       -2.2912814916
 H        -4.0194990391        4.9456197864       -1.3977217148
 H        -5.8142173332        3.6831270365       -3.4326726001
 H        -4.5693661702        4.8059160636       -3.9197408759
 H       -10.1237193309        5.4988076212       -4.8155502683
 H        -9.8973684485        5.4781425812       -3.0896862590
 H        -9.2159427095        3.0301691055       -4.9785634673
 H       -10.8821400602        3.3260843400       -4.3436979812
 H        -7.3034502314        0.6279805791       -4.1744902924
 H        -7.9581414848       -1.0453267970       -4.0763609859
 H        -6.5923001869       -0.5163374914       -3.0916418235
 H       -10.7353032563        1.2456087691       -0.9197410756
 H       -11.2716856253       -0.0846519347       -1.9801148620
 H       -11.8554364115        1.5489318146       -2.2092613587
 H       -10.2618306118       -0.4050862928       -4.1725553601
 H        -9.3078454881        0.7809253235       -5.0270688171
 H       -11.0193288431        1.0363232675       -4.7073329551
 H        -7.0390127427        8.1487618599       -2.3031167479
 H        -8.5753270987        7.3658206874       -2.4458131841
 H        -8.1171280998        8.5145656895       -3.7746240972
 H        -6.6272000807        7.4845710598       -5.5933490274
 H        -5.7252074770        6.0649097247       -5.4303435535
 H        -5.1436498224        7.5074586743       -4.4558180094
 H        -3.2870166316        4.9314171485        0.8862117047
 H        -2.7609985058        3.3077675982        0.6606987655
 H        -3.3803386297        3.6430619461        2.2283100289
 H        -4.3047499749        1.4935251180        1.5181398137
 H        -5.9844099199        1.7183865675        1.0317669243
 H        -5.4206790649        2.5495989211        2.5387500936
 H        -9.3879778896        8.6258422913        4.6572433482
 H        -8.2772116451        8.7215147599        3.2752009921
 H        -7.6234752452        8.6715972538        4.8104959377
 H        -9.4945656370        6.5274226163        6.3642494851
 H        -7.8673898614        6.8163837804        6.3686382981
 H        -8.4722711251        5.1781912384        5.9311187042
 H       -11.8065331100        2.2956204030        5.0392258685
 H       -13.0811688995        1.1596356278        4.6281143165
 H       -13.0203421148        2.9052720514        4.0649018520
 H       -10.1527036166        0.1924731972        2.5026825964
 H       -11.7323086610       -0.5741267530        3.3359768607
 H       -10.4791787914        0.4459922832        4.2069539158
 H       -17.3962545413        1.2448865919       -1.7079634789
 H       -18.4774792856        2.4534633208       -1.1949734911
 H       -17.2946645537        1.7721913109       -0.0141655759
 H       -16.1394781167        2.5453437093       -3.6017662110
 H       -15.4954147365        4.1342979842       -3.2880768819
 H       -17.1613278505        4.0080135181       -3.4065136749
 Na       -8.5207209120        2.3339047348        0.0064145877
