117

 C       -17.7659265791        5.3951764908       -1.1436167021
 C       -16.6051389739        4.5538405165       -0.6537338916
 O       -16.0442891909        4.7595440341        0.3909239453
 C       -16.2559294299        3.2300202805       -1.4663768587
 C       -14.8922808993        2.6932849728       -0.9707800280
 O       -14.0025833841        2.6684151869       -1.7983075180
 C       -14.8118789908        2.0472568065        0.3835909478
 C       -13.3372686890        2.0617201365        0.7910932955
 C       -12.8685193751        1.1517776976        1.9491704930
 O       -13.4305750533        0.0913370530        2.1250066459
 C       -11.7769773901        1.5998992085        2.9783823045
 C       -10.7756373960        2.6340393802        2.3612523288
 O        -9.9530330905        2.1471807103        1.6055600331
 C       -10.9850014555        4.0915187951        2.6321202773
 C        -9.7895539255        4.7297862931        3.3819826141
 C        -9.7471814502        6.2504510379        3.4710503674
 O       -10.5948652257        6.9847759501        2.9769953687
 C        -8.5269020847        6.7800941586        4.3294514103
 C        -7.1789787280        6.2748119211        3.5596576210
 O        -6.5492769110        5.4557084341        4.2171716476
 C        -6.8513426920        6.6910183858        2.1581757960
 C        -5.6070178194        5.9670713148        1.3919994747
 C        -6.0261757280        4.5871130402        1.0181794139
 O        -7.2215577011        4.2323009134        1.1521958384
 C        -4.9144919131        3.5330529902        0.7677993993
 C        -5.2156301982        3.2818027284       -0.7639018322
 O        -6.1944917210        2.5152237179       -1.0146833974
 C        -4.3514069576        3.9487230420       -1.8105262248
 C        -5.2860815496        4.5519670645       -3.0339705728
 C        -6.1079460104        5.7521765066       -2.6482417933
 O        -6.0078830568        6.3323315031       -1.5125138900
 C        -7.0065028962        6.4036997712       -3.7377225904
 C        -8.0094981897        5.2144409701       -4.3102882154
 O        -7.4114707566        4.4594829485       -5.0444976214
 C        -9.4580031085        5.0666862367       -3.9903764978
 C        -9.7916245066        3.5674171769       -4.2645853181
 C        -9.3840044120        2.7219530780       -2.9269919927
 O        -8.9662572860        3.2653511492       -1.9596030799
 C        -9.7405280055        1.1434845666       -2.8886040623
 C        -8.4167187920        0.3376766410       -2.3466597803
 O        -8.1469163531        0.2877244261       -1.1518714719
 C        -7.6501733160       -0.2302550981       -3.4111476242
 C       -10.9843971887        0.9292652956       -2.0710870539
 C       -10.1096947803        0.7563916805       -4.3306295391
 C        -7.6703641531        7.6247500548       -3.1785192611
 C        -6.1910091190        6.9300831039       -4.9532334336
 C        -3.4156033175        3.8664633051        1.0750519944
 C        -5.2095969750        2.1723189540        1.5893667120
 C        -8.5442027795        8.3026613973        4.2899733089
 C        -8.5314437533        6.3024968403        5.7849799664
 C       -12.6505419912        2.0097874323        4.1924801560
 C       -11.0051577377        0.2446162025        3.3060604605
 C       -17.4786205986        2.3560173963       -1.0895585010
 C       -16.2743708280        3.2849904330       -2.9602657362
 H       -17.8634449497        6.2965517546       -0.5109370090
 H       -18.6684865803        4.7892447079       -1.0900607136
 H       -17.7468324012        5.6697985540       -2.1850277364
 H       -15.2401123343        1.0507730120        0.3298412771
 H       -15.4117465630        2.6016732338        1.1268969033
 H       -12.9472004340        3.1316784462        0.8451861681
 H       -12.6904854826        1.6418281386       -0.0722343094
 H       -11.8999922230        4.3785013011        3.0958855904
 H       -11.0673794460        4.6460704559        1.6436551535
 H        -8.8234719447        4.3443985897        2.9567992233
 H        -9.9844180367        4.3407737067        4.4321806775
 H        -6.7030148239        7.7817688449        2.1891411065
 H        -7.7433356590        6.5808196560        1.5031882664
 H        -4.6203897951        6.0341149556        1.9225751781
 H        -5.5540969194        6.5563029053        0.5104401439
 H        -3.6403889569        3.2228237785       -2.2098184095
 H        -3.8203101331        4.7472003573       -1.2742989155
 H        -5.8774855151        3.6930714558       -3.4377801872
 H        -4.7055164960        4.8596351018       -3.8841133613
 H       -10.1334424161        5.7077704714       -4.5224787823
 H        -9.7479926524        5.2418712406       -2.9516726000
 H        -9.3201376658        3.1521514998       -5.1874929875
 H       -10.8356740044        3.4486924460       -4.3419570718
 H        -7.4794364969        0.4558119910       -4.1921702230
 H        -8.1499246771       -1.1238580220       -3.8297654545
 H        -6.6532150533       -0.5790654122       -3.0488289500
 H       -10.6914188069        1.0614771920       -0.9365663780
 H       -11.5019235334       -0.0307663039       -2.2619975051
 H       -11.7397174313        1.7065407128       -2.2094063972
 H       -10.4460028085       -0.2859446109       -4.4740425021
 H        -9.3227214280        0.9753447049       -5.0731107512
 H       -10.9928792814        1.2968784269       -4.6355493753
 H        -7.0204334916        8.0778309527       -2.4415575280
 H        -8.5872455749        7.4118600475       -2.6287984269
 H        -7.9124769730        8.3763494460       -3.9491937771
 H        -6.7493507720        7.6483707519       -5.5996439065
 H        -5.9554836926        6.0765450553       -5.6998283889
 H        -5.2641771791        7.3406053466       -4.6089847596
 H        -3.0956172740        4.8129391333        0.7204977402
 H        -2.7399110668        3.0420373763        0.7193320010
 H        -3.4447492316        3.8044280439        2.1576538352
 H        -4.3732127285        1.5199115672        1.4554479785
 H        -6.1348002842        1.7284157525        1.2555746995
 H        -5.3160846891        2.5468406858        2.6144978062
 H        -9.3981127001        8.6240561284        4.7939466518
 H        -8.3496618003        8.7972257293        3.3708563102
 H        -7.6885145739        8.6482495065        4.7808420058
 H        -9.5202368787        6.2361282456        6.1188821744
 H        -8.1845843254        7.0420038227        6.4977740695
 H        -8.1472394812        5.2753115698        5.9398805947
 H       -12.0528246359        2.3589281665        5.0767988937
 H       -13.0978279878        1.1118357236        4.5360621606
 H       -13.3133049315        2.8581848171        4.0427050765
 H       -10.4557254134        0.0145048329        2.4090047578
 H       -11.7948592508       -0.4793493922        3.6266421005
 H       -10.2779165914        0.4976619378        4.0892693799
 H       -17.5605411897        1.4186022777       -1.6835628182
 H       -18.3953743992        2.9057161260       -1.2762571290
 H       -17.3821817733        2.0931517933       -0.0735195418
 H       -16.2459291518        2.2811288153       -3.3896972478
 H       -15.4517276020        3.7708576972       -3.4196982228
 H       -17.0925393445        3.8391788450       -3.4365199508
 Na       -8.4288024751        2.3509299211        0.0895730480
