117

 C       -17.9170733190        5.4150248199       -1.2135043517
 C       -16.7061634794        4.6516009002       -0.7418738220
 O       -16.1484250612        4.8436407982        0.3426094204
 C       -16.3137407615        3.2809522927       -1.5100542951
 C       -14.9478677415        2.6369740151       -0.9985359866
 O       -13.9613814978        2.6073412052       -1.6842305116
 C       -14.7382058797        2.0783632592        0.4247105129
 C       -13.3337336904        2.1488365795        0.8815967688
 C       -12.8974819569        1.1132731061        1.9750524762
 O       -13.4166311483        0.0679219783        2.2106204793
 C       -11.8238946369        1.5700257452        3.0845836169
 C       -10.8608697601        2.5674828184        2.4390839541
 O       -10.0491421279        2.0454580387        1.6841602050
 C       -10.9637732726        4.0963019350        2.6421306201
 C        -9.7089402620        4.7217133686        3.3345374557
 C        -9.6467930832        6.2788253918        3.3775193359
 O       -10.4054635420        7.0056339710        2.8509223650
 C        -8.4744371237        6.9128806522        4.2733974402
 C        -7.0958763484        6.3102686595        3.5310924503
 O        -6.4685739253        5.4172721163        4.1145725271
 C        -6.8943887889        6.7790172986        2.0958618454
 C        -5.7482534220        5.9523636113        1.5829881793
 C        -6.0774098195        4.5151082096        1.2462402890
 O        -7.2513549945        4.1403404594        1.1656424116
 C        -5.0005288308        3.4677139963        0.8313986205
 C        -5.2134189916        3.1543399889       -0.7165327652
 O        -6.1224872337        2.4018862985       -1.0437604201
 C        -4.3724431804        3.8416983758       -1.7658602092
 C        -5.2678384012        4.4613428377       -2.9490193765
 C        -5.9404045344        5.8088264120       -2.6688047920
 O        -5.9679373399        6.3786192675       -1.6287630229
 C        -6.9957415030        6.3918946641       -3.7982311438
 C        -7.8380210727        5.1893178761       -4.2964623268
 O        -7.3909205871        4.2980892525       -4.9949748338
 C        -9.3147526584        5.0925866219       -3.9000119864
 C        -9.8513907836        3.6425099423       -4.0659456817
 C        -9.4868992086        2.7470219035       -2.9499083793
 O        -8.9154691736        3.2189240610       -1.9774052015
 C        -9.7516591088        1.2327970871       -3.0059579917
 C        -8.4733114962        0.4129172331       -2.3960549423
 O        -8.2166684633        0.4273719116       -1.2086067253
 C        -7.5695786905       -0.4221166166       -3.3590383210
 C       -10.9971630953        0.9716720128       -2.0754847255
 C       -10.1069030031        0.6840454945       -4.4833470062
 C        -7.8536706661        7.5973170634       -3.1808571108
 C        -6.1993032619        6.8310958222       -5.0611615222
 C        -3.5161125505        3.9679693295        0.9507360017
 C        -5.3284248446        2.1836686210        1.6155447207
 C        -8.6175158595        8.4804904959        4.2552076460
 C        -8.5523409284        6.3354656959        5.6232612210
 C       -12.6767444413        2.1195068309        4.2188220976
 C       -11.0017770795        0.2728216820        3.4211181420
 C       -17.5246004758        2.3507880228       -1.0252222682
 C       -16.2971260135        3.3178347815       -3.0545355445
 H       -17.8124432850        6.3987430873       -0.6886615070
 H       -18.8613249668        4.9320650913       -0.9752044316
 H       -17.9499713091        5.5704618885       -2.2331476476
 H       -15.0055992510        1.0128884656        0.4692285104
 H       -15.3389976424        2.5231095908        1.1896010839
 H       -13.0161399486        3.1875685947        1.2338408199
 H       -12.5851653334        2.0022358818        0.0339492155
 H       -11.8388440747        4.3670131303        3.1858636325
 H       -10.9968393674        4.8141769177        1.7480813995
 H        -8.8622179542        4.4230990482        2.6775267176
 H        -9.6173915590        4.2320987421        4.3961869354
 H        -6.6788859057        7.8474647670        2.0948494625
 H        -7.8245968830        6.6564394744        1.4809543407
 H        -4.9538011062        6.0358770707        2.3510248385
 H        -5.3926158929        6.4613097292        0.6274187021
 H        -3.8064082537        3.0156796662       -2.2672373203
 H        -3.6544061519        4.5954403541       -1.3886058201
 H        -5.9242779993        3.6897685626       -3.3423551775
 H        -4.5974770946        4.6364905742       -3.7790545984
 H        -9.9161090367        5.6402033903       -4.5420262680
 H        -9.5876760007        5.4520827673       -2.9166569487
 H        -9.2781358585        3.2202924319       -4.8700135176
 H       -10.8880142698        3.5545922665       -4.3131639386
 H        -7.1798067645        0.0751514527       -4.2505382562
 H        -8.0781001257       -1.2924261247       -3.7065840364
 H        -6.7342433929       -0.8149179569       -2.7928824580
 H       -10.5707477098        0.9884572940       -1.0249941915
 H       -11.4299572279       -0.0430657980       -2.2892742944
 H       -11.8176613614        1.6866847770       -2.0387237031
 H       -10.2845403171       -0.3946363425       -4.5330006700
 H        -9.4145429771        1.0191898220       -5.2285292247
 H       -11.1146515015        1.0717984320       -4.8104043352
 H        -7.2012651882        8.2244803362       -2.6507377454
 H        -8.6605341436        7.3458025487       -2.4809286155
 H        -8.2814434693        8.1645633447       -3.9410812868
 H        -6.6831886002        7.4688915778       -5.7980447459
 H        -5.8643775390        5.9608475523       -5.6285389722
 H        -5.3103190229        7.2946873232       -4.6803781870
 H        -3.4176149761        4.8441554678        0.3283687773
 H        -2.7287365587        3.1578507043        0.7094977170
 H        -3.3982244449        4.2859120368        1.9532094775
 H        -4.6170631069        1.4279329742        1.3028785628
 H        -6.3942852524        1.9074017544        1.5082571657
 H        -5.1698176413        2.4927604585        2.6152719505
 H        -9.4527107397        8.7128345694        4.9303039072
 H        -8.6140414507        8.9890557650        3.3588737912
 H        -7.7181699344        8.9495365022        4.6456552003
 H        -9.5566178070        6.0296526009        5.9272810107
 H        -8.3335522237        7.0253729820        6.4294710988
 H        -8.0005338773        5.4118858879        5.6708216188
 H       -12.1163701690        2.5535414021        5.0284945679
 H       -13.2202845220        1.3136122821        4.6971545266
 H       -13.3036290482        2.9664627235        3.8935544792
 H       -10.6664416180       -0.1226442971        2.4752613383
 H       -11.6472906591       -0.3810553018        3.9371219846
 H       -10.1465474424        0.6213330733        4.0164812857
 H       -17.3843585280        1.3098467613       -1.2896366653
 H       -18.4457290479        2.7430863249       -1.5060666236
 H       -17.5866598767        2.3898579796        0.0578541610
 H       -16.1740047472        2.3444282450       -3.4500044765
 H       -15.4229118386        3.8243430763       -3.4051614927
 H       -17.0550690910        3.7688588308       -3.6145266061
 Na       -8.1854544423        2.3864571951        0.1175933899
