117

 C       -18.2063623371        5.1644512134       -1.4666713412
 C       -16.8973858792        4.4809109585       -0.9498064058
 O       -16.2225884814        5.0913099149       -0.1939317016
 C       -16.3782756171        3.0462683795       -1.4230968134
 C       -15.0248702759        2.7575969364       -0.6780784885
 O       -13.9238895922        2.7158105132       -1.2222353841
 C       -15.0146678019        2.3714115796        0.7802889868
 C       -13.7781051980        2.8261347720        1.5860968848
 C       -13.1391089760        1.6285792282        2.2337802215
 O       -13.5426782995        0.4856914057        2.1932145974
 C       -11.9441076994        1.8879298485        3.2478582627
 C       -10.7691630762        2.4491027471        2.3722623329
 O       -10.0065855898        1.6453206225        1.8367957324
 C       -10.4633410222        3.9651055472        2.1856298485
 C       -10.0404831098        4.8741727937        3.4317624508
 C        -9.4767295769        6.1940238452        2.9687175337
 O        -9.6129281976        6.5532946748        1.7712762676
 C        -8.5242026297        6.9655420205        3.9019548698
 C        -7.1170853616        6.4924107398        3.3151688073
 O        -6.4550953575        5.7775811453        3.9939146397
 C        -6.6008493144        7.1153718723        2.0120503811
 C        -5.3934746461        6.1157037062        1.5398239298
 C        -6.0060985780        4.7637655771        1.1823788002
 O        -7.2000683449        4.5338701935        1.1929621543
 C        -4.9526912661        3.6702801539        0.8410475454
 C        -5.2682913282        3.2227250506       -0.6839207124
 O        -6.2720678680        2.6241756300       -0.8822947004
 C        -4.2205925241        3.6338577264       -1.7048601809
 C        -4.8568705415        4.1240987552       -3.0381928926
 C        -5.7171407832        5.4747102158       -2.8255409209
 O        -5.7276404109        6.0270134543       -1.7688730870
 C        -6.5800210915        5.8987021677       -3.9846556818
 C        -7.6863888702        4.7837848377       -4.1116605550
 O        -7.3907556766        3.6272342485       -4.4852334688
 C        -9.1043642349        5.0983841161       -3.7284032196
 C       -10.0010277290        3.8151923856       -3.9484150039
 C        -9.7386561257        2.7446241836       -2.7734573754
 O        -9.3380107916        3.1219876936       -1.6536233855
 C       -10.0024139433        1.1519348983       -2.9245940619
 C        -8.8425155110        0.3706960357       -2.3308790884
 O        -8.3769959531        0.6418498964       -1.2514140262
 C        -8.2529834504       -0.8293782776       -2.9931270928
 C       -11.3256344277        0.9053230197       -2.1470762651
 C       -10.1912289286        0.6544938689       -4.4215452207
 C        -7.2258118223        7.2366785920       -3.6514968795
 C        -5.6932675047        5.9640456233       -5.2671561488
 C        -3.4582508071        4.0511951449        1.0391442690
 C        -5.2839385352        2.3383518871        1.7551440601
 C        -8.6981994227        8.4952316760        3.6687501118
 C        -8.6015391800        6.6148341525        5.3420759429
 C       -12.4065722735        2.9012711897        4.2829838505
 C       -11.6622561050        0.4768146777        3.8655175106
 C       -17.3949849276        1.9160954896       -1.0372534193
 C       -16.2545678527        3.1245225025       -2.9322062834
 H       -18.1104255806        6.2085821395       -1.4432739198
 H       -19.0501635611        4.9940131767       -0.7925904278
 H       -18.3892673469        4.8574895675       -2.5472193665
 H       -15.0616510192        1.2546474446        0.8158162684
 H       -15.8812065507        2.6871550520        1.3198296963
 H       -14.0250576584        3.5060308322        2.3894395326
 H       -13.0528202276        3.3061253777        0.9831109094
 H       -11.3818460576        4.4073329812        1.8176110777
 H        -9.6299108089        4.0093520007        1.5250250338
 H        -9.3425213072        4.2228896881        3.9900236251
 H       -10.8191485977        5.1080869259        4.2034021532
 H        -6.3016536014        8.1217108110        2.2720319085
 H        -7.4103024434        7.0682059659        1.2743309742
 H        -4.7364752671        5.9948705519        2.3538212648
 H        -4.9290122158        6.5707232015        0.6691695670
 H        -3.5223718431        2.8197619926       -1.9043635990
 H        -3.5674605546        4.3672795553       -1.2506429538
 H        -5.5476043454        3.3573266984       -3.4100882991
 H        -4.1013241243        4.2523944432       -3.8412197521
 H        -9.5985418221        5.9124847539       -4.2724972543
 H        -9.1516467301        5.3214588777       -2.6224240718
 H        -9.8195149853        3.3830385015       -4.9224220004
 H       -11.0824143300        4.1525729409       -3.8714898932
 H        -7.8357454451       -0.8088103993       -4.0485446240
 H        -8.9997462733       -1.6123255127       -3.0731710858
 H        -7.4892869776       -1.2373158202       -2.3657355797
 H       -11.2318714578        1.1274246148       -1.1533423800
 H       -11.5864830801       -0.1505034363       -2.2057182422
 H       -12.1043964293        1.5280924313       -2.6535260159
 H       -10.3399891689       -0.4067072476       -4.4898258876
 H        -9.3039215472        0.8645216167       -4.9732440994
 H       -11.0149896557        1.2691756622       -4.8144712117
 H        -6.4685633176        8.0670391535       -3.6870065733
 H        -7.5982598590        7.2565924204       -2.6124075436
 H        -8.0607407258        7.5458483869       -4.3233336273
 H        -6.2568462448        6.0984551250       -6.1931685953
 H        -5.0266208216        5.1509007769       -5.3737514836
 H        -5.0009805190        6.8865551684       -5.3112319256
 H        -3.0917579414        5.0065532627        0.5756923751
 H        -2.9143945435        3.2568293869        0.6680071810
 H        -3.1875172972        4.1073171370        2.1031801233
 H        -4.3985319540        1.6963558949        1.5892355820
 H        -6.2479054819        1.9086585425        1.4300848475
 H        -5.2549026436        2.5167607036        2.8185451707
 H        -9.4008691796        9.0385885888        4.2695642900
 H        -9.0112554287        8.8524753592        2.7021460632
 H        -7.7812384802        8.9630248611        4.0411711492
 H        -9.6908813410        6.4250821433        5.5726644626
 H        -8.2252842901        7.3624202892        6.0178387140
 H        -8.0496139816        5.7729842083        5.6651267163
 H       -11.7220907190        3.1360157649        5.0617505982
 H       -13.4065455300        2.6666893799        4.7028222192
 H       -12.6310447071        3.8756447697        3.8422899300
 H       -11.7428418797       -0.3856386934        3.1382684486
 H       -12.4218298224        0.3170831274        4.6351981796
 H       -10.6597986333        0.5529526428        4.3324898627
 H       -16.8647274780        0.9932675154       -0.9784309850
 H       -18.1005252466        1.8156003277       -1.8707408223
 H       -17.9428707451        2.2471217637       -0.1235733752
 H       -16.2342008797        2.1505950668       -3.4590933519
 H       -15.2612179713        3.5938143885       -3.2158351987
 H       -17.0185795331        3.7553116644       -3.4478138670
 Na       -8.1782616499        2.5314681615        0.3136636022
