117

 C       -18.3440575682        4.7482862473       -1.5203006201
 C       -16.9276264651        4.4637048323       -1.0690160615
 O       -16.3220807086        5.1987838990       -0.3467180805
 C       -16.3685857828        3.0308945114       -1.4724025866
 C       -15.0438069094        2.7297990366       -0.6300943691
 O       -13.9837047770        2.7440244468       -1.2419256159
 C       -15.1296510843        2.5862930635        0.9113971839
 C       -13.7281044830        2.8809985829        1.6147418819
 C       -13.1095688094        1.7146815496        2.3005618965
 O       -13.4477733596        0.5540322568        2.1811192712
 C       -11.8171833713        2.0213529653        3.2181376171
 C       -10.7564559113        2.6044813168        2.3713233004
 O        -9.8424054036        1.8734627893        2.0199383664
 C       -10.7440651281        4.0853882819        2.0751561151
 C        -9.7636255157        4.7416609909        3.0503076586
 C        -9.4113250035        6.1677345171        2.6872098458
 O        -9.5602506485        6.6231777964        1.5505517639
 C        -8.5500366843        6.9879839539        3.7309356962
 C        -7.0522802772        6.5327027060        3.3929399527
 O        -6.5164712320        5.7452992470        4.1300841125
 C        -6.4779184382        7.2010387522        2.1063678605
 C        -5.5648286919        6.1499535914        1.3482028760
 C        -6.0210767805        4.6514385831        1.2012145091
 O        -7.2025723765        4.4386917100        1.3718513403
 C        -4.9720674796        3.6500852456        0.8000597638
 C        -5.1675694012        3.3263130433       -0.6241081003
 O        -6.2057429834        2.8077291606       -0.9403791690
 C        -4.0640149059        3.4401199823       -1.7472272153
 C        -4.5380175933        4.0234562893       -3.0820504186
 C        -5.5788884328        5.1768568333       -2.8568053462
 O        -5.7323855131        5.5813821477       -1.7511127757
 C        -6.4506315718        5.6276139179       -4.0545194873
 C        -7.5936409494        4.6128656829       -4.0545052112
 O        -7.2652055969        3.4800523882       -4.4075664543
 C        -9.0171860585        4.9685685854       -3.7457736145
 C        -9.9084548254        3.7256226212       -3.8298793325
 C        -9.8896007676        2.8455687717       -2.5777197526
 O        -9.6782360406        3.3506296213       -1.4615897742
 C       -10.2120866743        1.3447563877       -2.7090384915
 C        -8.9968901899        0.4441193460       -2.1552782753
 O        -8.5014059484        0.6785128836       -1.0807533478
 C        -8.4843384497       -0.8633452117       -2.9108912516
 C       -11.3814612489        0.9041557269       -1.7809146367
 C       -10.3830631950        0.9421127465       -4.2051652318
 C        -6.9526768699        6.9978587133       -3.7802621774
 C        -5.7575080664        5.5622410130       -5.4376236702
 C        -3.4643523272        4.1330558200        1.1132796959
 C        -5.3214336131        2.3922235823        1.6349255334
 C        -8.8010472033        8.4850434280        3.5291182077
 C        -8.8535685193        6.6739258679        5.1731192823
 C       -12.2313595458        3.0209127109        4.3086435096
 C       -11.2672159686        0.7569928869        3.8881069952
 C       -17.5681643410        2.1026203584       -1.2168463805
 C       -16.0783384663        3.0664136568       -2.9957329664
 H       -18.4849154672        5.8017533607       -1.4796620046
 H       -18.9831601374        4.4572603451       -0.6930593575
 H       -18.5929847531        4.3329716128       -2.4983095644
 H       -15.3591430155        1.5409981999        1.2194866032
 H       -15.9252441111        3.2402696557        1.2893249911
 H       -13.8316605135        3.6791301711        2.3851192149
 H       -13.0061868068        3.2221280733        0.8544727768
 H       -11.6008634636        4.6925449607        2.2357888514
 H       -10.2685676513        4.3334478744        1.0726360969
 H        -8.8518708548        4.2707854293        3.0560304153
 H       -10.0779515302        4.6916151809        4.0908565060
 H        -5.8873993343        8.0500953086        2.4362542385
 H        -7.3274769626        7.5449365390        1.4681849828
 H        -4.5960830360        6.3085876869        1.8681302090
 H        -5.4978721934        6.4719352387        0.2967372796
 H        -3.5557704198        2.4947109925       -1.9149608757
 H        -3.2393622178        4.0987578629       -1.4485746427
 H        -5.1328812743        3.3001633496       -3.6941091650
 H        -3.6775214279        4.3367536567       -3.6579795211
 H        -9.3529858429        5.7352569460       -4.4293602429
 H        -9.0903072038        5.3850577571       -2.6860467773
 H        -9.6073964388        3.1391617787       -4.7185574600
 H       -10.9803603218        3.9727430285       -3.8911010141
 H        -7.9017177504       -0.7289340936       -3.8533116215
 H        -9.2496477775       -1.5677284701       -3.1582343724
 H        -7.8070055934       -1.4203552340       -2.3071087119
 H       -11.1572299081        1.2213306813       -0.8192339878
 H       -11.4944465751       -0.2037444010       -1.8223089836
 H       -12.3527081629        1.3154028038       -2.1407376520
 H       -10.5612546014       -0.1480127390       -4.2488409192
 H        -9.4105100998        1.0640744105       -4.6144812065
 H       -11.2741992914        1.4031079394       -4.6989568086
 H        -6.1859661217        7.6954763093       -3.9655942652
 H        -7.2604428691        7.1635318495       -2.7499486592
 H        -7.7595101678        7.2211961560       -4.4054428029
 H        -6.3263725601        6.1912934238       -6.0877129002
 H        -5.7689061570        4.6375471630       -5.8955694375
 H        -4.7098723244        5.8912089069       -5.5105333136
 H        -3.0767178624        4.9568497820        0.4767458101
 H        -2.7404053623        3.3276107463        0.9860951798
 H        -3.3350057573        4.3019451575        2.1761132388
 H        -4.8395282730        1.5172418509        1.1789665210
 H        -6.4234732103        2.2066345855        1.5968626114
 H        -4.9645335062        2.5650759952        2.6199532689
 H        -9.8562420980        8.8138385219        3.6543013465
 H        -8.6738023394        8.8337368233        2.5222084203
 H        -8.2129959986        9.0999993491        4.2622541078
 H        -9.8771123424        6.9405993861        5.4880538611
 H        -8.2125573231        7.2963745061        5.8114074262
 H        -8.6515754652        5.6556249878        5.4844815874
 H       -11.4495102345        3.2787069281        5.0032963130
 H       -13.0807372431        2.6860013168        4.9015513687
 H       -12.4816477012        4.0304188594        3.9561090741
 H       -10.7397576468        0.1463276534        3.1626964093
 H       -12.0891635475        0.2856073906        4.3217332648
 H       -10.5104348031        0.9966903600        4.6632638265
 H       -17.2899740328        1.1465479236       -1.5876960607
 H       -18.4505942731        2.3589154931       -1.8093478291
 H       -17.7504646111        2.1563650064       -0.1573642352
 H       -15.9406747728        2.0651723334       -3.3368755215
 H       -15.2317941526        3.6376448469       -3.3541589663
 H       -16.9090419152        3.4821370613       -3.4819995867
 Na       -8.3328355013        2.5366982680        0.3399656224
