117

 C       -18.3985704444        4.8746687182       -1.5395467636
 C       -17.0282581242        4.4246748074       -1.0386951614
 O       -16.2832430773        5.2375670687       -0.4795164835
 C       -16.4135296290        2.9896414933       -1.4258486712
 C       -15.0945444202        2.8212360747       -0.6561229686
 O       -14.0265873642        2.7453675880       -1.2060568252
 C       -15.1329614709        2.6073425143        0.8633140084
 C       -13.7754341550        2.9294700307        1.4838919772
 C       -13.0861533927        1.7797854472        2.2929230919
 O       -13.4538343739        0.6307897282        2.1781580454
 C       -11.7961908950        2.0855237387        3.2287955347
 C       -10.7546197798        2.7315644607        2.3348857362
 O        -9.8475680845        2.0410856266        1.8613307193
 C       -10.7872174754        4.1777284359        1.9676993449
 C        -9.6870926747        4.8267786546        2.8770347236
 C        -9.3750613408        6.3259547591        2.5641269603
 O        -9.6872988376        6.7822733707        1.5249262302
 C        -8.5603763617        7.0861118796        3.5957171784
 C        -7.1013629319        6.6374094841        3.3892555255
 O        -6.4626492493        5.8704591002        4.1034272461
 C        -6.5571393816        7.1145170497        1.9737438091
 C        -5.4606961885        6.1622736058        1.5873809647
 C        -5.9282931745        4.7931820892        1.2949010128
 O        -7.1320029889        4.5249501061        1.2134632655
 C        -4.8938804288        3.5635613326        0.8688268810
 C        -5.1575871242        3.2618935699       -0.6931440124
 O        -6.2966311946        2.9723034127       -1.0665264066
 C        -3.9998617461        3.3361549795       -1.6189779126
 C        -4.3728331606        3.8561433767       -3.0277433890
 C        -5.3826306201        5.0105717250       -2.9718479263
 O        -5.6915238069        5.4506434495       -1.8516752517
 C        -6.3818203857        5.4211022963       -4.1292941204
 C        -7.5890984191        4.3794952042       -4.1091414438
 O        -7.4943255356        3.2573874868       -4.4640779729
 C        -8.9626181843        4.8405930132       -3.6046233188
 C       -10.0938124195        3.8309518616       -3.7324531214
 C        -9.9275481371        2.8933419293       -2.5076575906
 O        -9.8150668618        3.3881263202       -1.4176125284
 C       -10.2232868840        1.3865254893       -2.5544324915
 C        -8.9257364951        0.4141029947       -2.0229496568
 O        -8.5175177662        0.5698235819       -0.8970625661
 C        -8.6226293704       -0.7848368504       -2.8256922339
 C       -11.3625845385        1.1281773980       -1.5242004096
 C       -10.7278662865        0.9130750339       -3.9187205254
 C        -6.7569441933        6.8786495938       -3.8080613884
 C        -5.6301041741        5.3864508854       -5.4347160869
 C        -3.5002026757        4.0565900560        1.2480231495
 C        -5.1166993699        2.2495606873        1.7341729161
 C        -8.7213866133        8.5724909790        3.4099717494
 C        -8.9361185054        6.6654709074        5.0695595311
 C       -12.2637512212        2.9504335768        4.3895879180
 C       -11.4311752662        0.7195003713        3.9129966867
 C       -17.2754700985        1.7340177746       -1.1229692730
 C       -16.0279215410        3.0188030941       -2.8756807166
 H       -18.4625341376        5.9994912229       -1.3758006220
 H       -19.2184705643        4.4642107434       -0.9439785863
 H       -18.4621346836        4.6232102581       -2.5705807841
 H       -15.3726873001        1.5652606873        1.0484111963
 H       -15.8750920384        3.2379082526        1.3664203010
 H       -13.8996227055        3.8101648454        2.0393589855
 H       -13.1418288230        3.0885157390        0.6406714982
 H       -11.7033825996        4.7969111795        2.0609811572
 H       -10.4828456091        4.3828961720        0.9615282866
 H        -8.6696131873        4.2811829528        2.7055965968
 H        -9.8812278211        4.6469399041        3.9266828915
 H        -6.1923960982        8.1719326647        1.9482109672
 H        -7.3672335356        7.0509205991        1.2708841808
 H        -4.7455805602        6.1749384997        2.3877251463
 H        -4.9493760820        6.4676187399        0.6759831557
 H        -3.6694490426        2.3010469832       -1.7854295991
 H        -3.1560760946        3.8077136672       -1.1331432413
 H        -4.8242275770        3.0453660827       -3.5976266944
 H        -3.5349292026        4.3145444584       -3.6108018094
 H        -9.2119705752        5.8302309399       -4.1165238889
 H        -8.9063211003        5.0432431034       -2.5471359551
 H       -10.1537884593        3.3811283818       -4.7380977208
 H       -11.0416056915        4.3511433060       -3.4759825412
 H        -8.1205496908       -0.6217741745       -3.7235958156
 H        -9.5064843292       -1.4192700706       -3.0043011092
 H        -7.8930995953       -1.4419994122       -2.3065911422
 H       -10.8555984211        1.1910499575       -0.5233880855
 H       -11.7327667614        0.1841363063       -1.7724463778
 H       -12.1658020209        1.7740541581       -1.5624174233
 H       -11.1703857565       -0.0448845482       -3.7512477838
 H        -9.9230075591        0.8504532423       -4.6724102055
 H       -11.5743300846        1.4803935699       -4.1557984396
 H        -5.8535110625        7.4018190763       -3.4667797438
 H        -7.4977408946        6.9556386159       -3.0079414142
 H        -7.1704681048        7.3974842500       -4.6990443147
 H        -5.8809453842        6.1797080352       -6.1423146418
 H        -5.7245249806        4.4737332174       -6.1100238645
 H        -4.6158762489        5.4798302949       -5.2016888033
 H        -3.3412542845        4.9574774973        0.7365873523
 H        -2.5568859085        3.4747789301        1.1156589250
 H        -3.5000708282        4.2463333146        2.3069781292
 H        -4.3970116681        1.4518547985        1.5809795970
 H        -6.0620923488        1.8251490437        1.4232418129
 H        -5.2224904444        2.6228692875        2.7879553856
 H        -9.7955201598        8.8478464544        3.3919900348
 H        -8.4140208088        8.9387433813        2.3921774907
 H        -8.2891656918        9.1771883566        4.2129269681
 H        -9.9950702943        6.7832912646        5.2086532104
 H        -8.5036812595        7.2673300658        5.8774687740
 H        -8.7574520124        5.5817400835        5.2015251752
 H       -11.5718127113        3.0939478328        5.2288487581
 H       -13.0948096972        2.5000122975        4.8983590239
 H       -12.5203245584        3.9545213982        4.1405010667
 H       -10.8780133784        0.1461064052        3.1886267962
 H       -12.3462688374        0.2372223953        4.3527550941
 H       -10.6901150983        0.8114324863        4.6930868675
 H       -16.8070624500        0.8617714673       -1.6532790560
 H       -18.2211807640        1.9367023639       -1.6041577663
 H       -17.3808200778        1.5833165733       -0.0399775783
 H       -15.1914453944        2.3209414795       -3.0338653925
 H       -15.7040938336        4.0140820895       -3.1310344675
 H       -16.8786980294        2.8373623564       -3.5748964544
 Na       -8.3016595207        2.6876316451        0.0664528976
