117

 C       -18.3491143784        4.7893578507       -1.5679407962
 C       -16.9659675112        4.3954089864       -1.0397341169
 O       -16.2603088131        5.1993559159       -0.4737657569
 C       -16.4296331342        2.9965977462       -1.4201197861
 C       -15.0795515173        2.7750577334       -0.6232649320
 O       -14.0597427196        2.8407570648       -1.2787219685
 C       -15.1051422818        2.5963630661        0.9402362382
 C       -13.7665373862        2.9716186080        1.4885267937
 C       -13.1426188596        1.8204819128        2.2502824020
 O       -13.5666510462        0.6782739900        2.1237106844
 C       -11.9281356841        2.1077551360        3.1866812541
 C       -10.7643453954        2.6469283336        2.3078475307
 O        -9.9456628127        1.8694397050        1.8283747632
 C       -10.7355032848        4.1870347262        2.0289580636
 C        -9.7144367563        4.9250369027        2.8674184589
 C        -9.4419734220        6.4101591778        2.5304409543
 O        -9.7841686704        6.9806030965        1.5331381237
 C        -8.5709585661        7.1548552324        3.5797228475
 C        -7.0971109056        6.7081148176        3.3138876219
 O        -6.4191821325        5.9908358819        4.0242340615
 C        -6.4438976239        7.0478524160        1.8999725824
 C        -5.2999548617        6.0431748562        1.6330327507
 C        -5.9057570146        4.6701592454        1.1944086040
 O        -7.1078259747        4.5715722664        1.1098141639
 C        -4.9341167046        3.5822938770        0.9367886308
 C        -5.0679773433        3.2347760803       -0.6285583182
 O        -6.1653711405        2.9901582219       -1.0386660540
 C        -3.9020349324        3.3117619616       -1.6188263056
 C        -4.4935946892        3.6770642905       -3.0587926045
 C        -5.4768992804        4.8391182663       -2.8076205159
 O        -5.5675683214        5.4957711503       -1.7830073657
 C        -6.2800436413        5.2956169188       -4.0877952568
 C        -7.5926934484        4.3440634593       -4.1499051631
 O        -7.4146252194        3.2246512050       -4.5495299062
 C        -8.9796304560        4.9134149624       -3.5792369249
 C       -10.0982932003        3.8069824206       -3.5895535107
 C       -10.0363123409        2.8919930471       -2.3622712202
 O        -9.7393477170        3.4559629022       -1.3514049863
 C       -10.3601426855        1.2767221213       -2.4081698457
 C        -9.1049184058        0.4093018843       -1.9950597742
 O        -8.4720564192        0.6552976251       -0.9588122372
 C        -8.6525194471       -0.7827306471       -2.8349426187
 C       -11.4085802097        1.1713272107       -1.2916667098
 C       -10.8258425144        0.9097162892       -3.8330452573
 C        -6.6905657687        6.7824665878       -3.9098867435
 C        -5.5278633336        5.1715048424       -5.4744557384
 C        -3.3965972745        3.9952344203        1.1424328551
 C        -5.2296501366        2.2402058844        1.7061217301
 C        -8.7761764642        8.6887622294        3.4611892512
 C        -9.0829716761        6.7792589241        5.0493267328
 C       -12.3357661354        2.9883915506        4.4053086397
 C       -11.3450441478        0.7726528141        3.7550649798
 C       -17.1996492986        1.6375831577       -1.0447142623
 C       -16.0934077280        3.0615107038       -2.9299088003
 H       -18.6470245547        5.8423899855       -1.3388874745
 H       -19.0657906190        4.1316119040       -1.0256060026
 H       -18.4044235984        4.5460479736       -2.6007156887
 H       -15.2594273210        1.5536301701        1.1002703813
 H       -15.8848981193        3.1706822874        1.4549555713
 H       -13.9020559236        3.8665913008        2.1172768241
 H       -13.1588744833        3.1817572632        0.5645447294
 H       -11.6746662462        4.7756243310        2.1002089742
 H       -10.4796026333        4.4365437260        0.9122455181
 H        -8.7729410575        4.3500446218        3.0190905786
 H       -10.1697327131        4.9989744577        3.9269169409
 H        -6.1161960591        8.0857927838        1.7987080450
 H        -7.1953797313        6.9313637260        1.1083591309
 H        -4.6079152037        5.9559842479        2.5282720043
 H        -4.6813170688        6.4209641257        0.8225514585
 H        -3.3654236270        2.3412250652       -1.6267274627
 H        -3.1432134942        4.0571177313       -1.3182060789
 H        -4.9150367987        2.8536784601       -3.6735841031
 H        -3.8350881658        4.2858494036       -3.6407203574
 H        -9.2459506675        5.7069404882       -4.2551419719
 H        -8.8083273264        5.3490782100       -2.6120544256
 H        -9.8533193831        3.2621878087       -4.5073632317
 H       -11.0617697694        4.2401384367       -3.6911891407
 H        -8.2069803352       -0.4945067240       -3.7861776855
 H        -9.2989348233       -1.6525516507       -2.9911635896
 H        -7.7436398255       -1.1963789372       -2.3969282116
 H       -10.9085277414        1.5262993080       -0.4084876367
 H       -11.8491387600        0.1304352559       -1.2786132748
 H       -12.2813863883        1.8339628236       -1.5087754578
 H       -11.2447474436       -0.0826048566       -3.8654714820
 H       -10.0205191369        1.0459894924       -4.5141975860
 H       -11.6632957849        1.5671309277       -4.0208202026
 H        -5.8007732243        7.4296282271       -3.7735836849
 H        -7.3788299751        6.9241863846       -2.9833617133
 H        -7.2572693151        7.1162088710       -4.8005636925
 H        -5.9934735119        5.7117979700       -6.3434646722
 H        -5.4223685145        4.1572428397       -5.8978653586
 H        -4.4896023337        5.5483374836       -5.3231363946
 H        -3.1918689566        4.8498869405        0.5351902977
 H        -2.7199152211        3.1875243320        0.7013294627
 H        -2.9853033278        4.1760705070        2.1075421792
 H        -4.3731706058        1.5882545877        1.6038440201
 H        -6.0818982882        1.6291925183        1.3414205482
 H        -5.3862655206        2.5833157047        2.7127702677
 H        -9.8512007953        8.7813712868        3.6784249568
 H        -8.7042539904        9.0022122533        2.4777755867
 H        -8.2707253783        9.3869841549        4.0934540421
 H       -10.1586213250        6.7648136860        5.1019267880
 H        -8.8093526443        7.5469405883        5.7816820024
 H        -8.7444734215        5.7594631801        5.3393099712
 H       -11.5287478798        3.1672796498        5.1332442372
 H       -13.0178357694        2.5049162224        5.0613905621
 H       -12.7055519021        4.0022072710        4.1814427517
 H       -10.8943761895        0.2245612168        2.9257210382
 H       -12.0368240898        0.2213484099        4.3959274442
 H       -10.4019349896        0.9500526337        4.3643205576
 H       -16.4799713070        0.8125653386       -1.2879364047
 H       -18.1408153077        1.5288484187       -1.6231509079
 H       -17.3677005299        1.6454770759        0.0179372047
 H       -15.2411991647        2.3566199703       -3.1494126172
 H       -15.8261933412        4.1005245641       -3.2533315517
 H       -16.9831289759        2.8232347908       -3.5525457776
 Na       -8.2749188960        2.8012739547        0.0692426367
