117

 C       -18.6122354753        4.5973708211       -1.5527493670
 C       -17.1941939949        4.2982665808       -1.0970139925
 O       -16.5811900687        5.0291902409       -0.3718832431
 C       -16.4263647677        2.9681327171       -1.5185204728
 C       -15.0729663321        2.9630291944       -0.7874431469
 O       -14.0043012534        3.1239838148       -1.4039119742
 C       -15.1191745536        2.6248005028        0.6853741926
 C       -13.8938049220        3.0771389153        1.4031767665
 C       -13.1863664482        1.9405738700        2.2404978779
 O       -13.6322580392        0.8491927596        2.1384608891
 C       -11.8585731678        2.1805833113        3.1145705642
 C       -10.7974731085        2.8597110217        2.2449084972
 O        -9.8686095225        2.1930578522        1.8188625816
 C       -10.7517241928        4.3964321625        2.0451896585
 C        -9.7093661495        5.0278452710        2.9954823364
 C        -9.5689314241        6.5150238851        2.7157396763
 O       -10.1841998707        7.0470549124        1.7577044103
 C        -8.5090230126        7.3598733328        3.5110301278
 C        -7.0214690279        6.7815400336        3.2768229731
 O        -6.4454465809        6.1470219553        4.1152087165
 C        -6.3753183330        7.0512266261        1.9001180873
 C        -5.2190105845        6.0752915567        1.5921803498
 C        -5.8204264511        4.6781314174        1.2585053029
 O        -7.0397705177        4.6194156080        1.1210021713
 C        -4.8576821155        3.4850900741        1.0845283525
 C        -5.0374153515        2.9057592479       -0.4251059240
 O        -6.0509742344        2.2982389984       -0.6499314360
 C        -3.9932832493        3.0677092196       -1.4767325095
 C        -4.4608435791        3.3410503245       -3.0584060039
 C        -5.2819425018        4.7755497787       -3.1251879966
 O        -5.3718052554        5.5088463686       -2.1819467581
 C        -6.2200618174        5.1248522174       -4.3836025579
 C        -7.4892496595        4.0959485651       -4.2476534043
 O        -7.3914527798        2.8748905029       -4.4910784744
 C        -8.7932248615        4.6652009908       -3.6684386243
 C        -9.9528355717        3.6117718770       -3.5653738454
 C       -10.0088459609        2.9021161794       -2.2320349847
 O        -9.7122289884        3.5702779048       -1.2548513736
 C       -10.4714002178        1.4094367987       -2.1034010169
 C        -9.2365396065        0.5873129893       -2.0759627896
 O        -8.4045396069        0.9304085087       -1.2151562681
 C        -8.9225943934       -0.6285480970       -2.9528796761
 C       -11.3109620088        1.1739256260       -0.7715736229
 C       -11.3718189542        1.0433628664       -3.2980099031
 C        -6.6051229210        6.6564730493       -4.2404322983
 C        -5.5744747128        4.8647326482       -5.7563434305
 C        -3.3689318703        3.8329831789        1.3189063846
 C        -5.3138238687        2.3765007713        2.0428585376
 C        -8.5959796160        8.7704469458        2.8810440433
 C        -8.9919798615        7.4237723940        4.9603794876
 C       -12.1964130003        3.1190958881        4.3226750441
 C       -11.2223041762        0.8097667916        3.4803331530
 C       -17.2650404904        1.7469945044       -1.0640590649
 C       -16.1065407489        2.7385762900       -3.0212029592
 H       -18.8560009860        5.4765315968       -1.0088148853
 H       -19.2730267312        3.7158908927       -1.4233192956
 H       -18.6558676419        4.8534846881       -2.6193741875
 H       -15.0645465167        1.5431899924        0.7463586887
 H       -16.0511259711        2.9465220410        1.1775050662
 H       -14.1470101998        3.9572657093        1.9194081529
 H       -13.2197435170        3.3033750114        0.6311075175
 H       -11.6887196053        4.9148423213        1.9271129655
 H       -10.3760787795        4.4610023132        0.9682001955
 H        -8.8088326157        4.4176815227        2.9243175089
 H       -10.0827735518        4.8468989556        4.0761995513
 H        -6.0006278678        8.0718049433        1.8969558860
 H        -7.1059024741        7.1155015929        1.0829771387
 H        -4.6227477521        6.0594479346        2.5130837126
 H        -4.5053118887        6.4517078527        0.9133366324
 H        -3.5115844149        2.0814410061       -1.5004433610
 H        -3.1836783102        3.7848636531       -1.3166425182
 H        -5.1744476871        2.6077571760       -3.5001701589
 H        -3.6088176491        3.5287926265       -3.6705808196
 H        -9.0379753580        5.5339901668       -4.2850880760
 H        -8.5363930348        5.0720667482       -2.6588089689
 H        -9.8437890315        2.9169896426       -4.4449317173
 H       -10.8517812256        4.1610552535       -3.7678131579
 H        -8.7277718130       -0.4076511562       -4.0371562448
 H        -9.5512039079       -1.5046789683       -2.9155760037
 H        -7.9586459961       -0.9616668785       -2.6207246996
 H       -10.6772564047        1.2757710628        0.0216554257
 H       -11.6708476074        0.1623655801       -0.8459700140
 H       -12.1081758433        1.9168762610       -0.7389293427
 H       -11.8096319769        0.0608770185       -3.1171174185
 H       -10.8228567356        1.0663471102       -4.1978906740
 H       -12.1088896147        1.8495061168       -3.3975614368
 H        -5.7647407957        7.2887163240       -4.4414946425
 H        -7.1067209767        6.8819197101       -3.2890634472
 H        -7.2650587361        6.8176996776       -5.0614991155
 H        -5.9332259675        5.5150908883       -6.5588690319
 H        -5.7127488668        3.8783262324       -6.0458722929
 H        -4.4551425202        4.9771893326       -5.6764990506
 H        -3.0153789954        4.6290943353        0.6629114874
 H        -2.8740846641        2.9286365962        1.0051630938
 H        -2.9970011435        4.1618348107        2.2514108722
 H        -4.8363093796        1.4308985487        1.7089271635
 H        -6.4140252056        2.1707435061        2.1530059229
 H        -4.8984234999        2.6188749921        3.0146892016
 H        -9.5666473070        9.1844936063        3.2010440708
 H        -8.3045348171        8.8224716375        1.8557078744
 H        -7.8090770172        9.4422382257        3.3190785448
 H        -9.7395336362        8.2163735530        5.0591356566
 H        -8.1049360573        7.6815844192        5.5532457923
 H        -9.3689187747        6.4603563735        5.3322673228
 H       -11.4662170932        3.0544650732        5.1092947711
 H       -13.1002469839        2.8632330639        4.8442035887
 H       -12.3751335217        4.1600172950        4.0603761091
 H       -10.9252036542        0.2580876104        2.5699972114
 H       -11.8502367060        0.1465985316        4.0390026016
 H       -10.3288030821        0.9773127957        4.1391660995
 H       -16.6140720280        0.8788999257       -1.1259557652
 H       -18.1943567194        1.7026901754       -1.6478756764
 H       -17.4976400182        1.7667501467       -0.0238506972
 H       -16.2042805480        1.6738365356       -3.1788999360
 H       -15.0822146155        3.0394306864       -3.2672017729
 H       -16.8524913091        3.1347737562       -3.6723651270
 Na       -8.0403703997        2.6728761808        0.3928963551
