117

 C       -12.7011541330        9.6146395071       -3.9790975395
 C       -11.6851134489        8.5990737816       -4.5869517875
 O       -11.6759523103        7.4631093215       -4.2568811844
 C       -10.7228751156        9.1037952591       -5.6734967295
 C        -9.4326688956        9.5115843984       -4.9920569921
 O        -8.9300420321       10.6352143250       -5.1278750822
 C        -8.7360792133        8.5623765665       -4.1086099126
 C        -8.1270639513        9.3137850109       -2.9384898051
 C        -7.3746035517        8.6230359934       -1.8159430637
 O        -6.4460482267        7.8625436046       -2.0362764689
 C        -7.7329915928        8.9179118951       -0.3588780574
 C        -9.0324772353        8.0596006885       -0.2046457289
 O       -10.1335065239        8.5682935249       -0.0760008058
 C        -8.9145463265        6.5156236845       -0.3619635643
 C        -9.8698001100        5.8810576375       -1.4033885004
 C        -9.7377667420        4.3691903839       -1.3326413575
 O        -8.7617983656        3.8128416946       -0.8413565486
 C       -10.6422292333        3.4572640005       -2.2567568284
 C       -11.6112305787        2.9147730669       -1.0075719730
 O       -11.1872061289        1.9296950619       -0.3595497658
 C       -12.7620254356        3.8046768622       -0.4201724661
 C       -13.0352709728        3.6415387375        1.0782582537
 C       -11.7226346145        4.0228291887        1.9087397046
 O       -10.7656581706        4.4645080353        1.2732940844
 C       -11.4808128990        3.8251335384        3.5826822673
 C       -11.0378502042        2.3772733110        3.7019572572
 O       -10.0937039556        1.9345223786        3.1364700809
 C       -11.9280575619        1.4289541380        4.5420782372
 C       -11.2442543996        0.0695236724        4.8469812019
 C       -11.5345834127       -1.1282567407        3.6775861230
 O       -11.9898291260       -0.7881846566        2.5795351814
 C       -11.0136590030       -2.5569877362        3.9361197900
 C        -9.7474566750       -2.7626366844        3.0922823737
 O        -8.6418395212       -2.7821876673        3.6096783696
 C        -9.9408685487       -2.9477680149        1.6105986566
 C        -8.8525932434       -2.5599588398        0.4551807088
 C        -8.4909582704       -1.1071962884        0.4067638140
 O        -9.2982591922       -0.2414410081        0.5545581598
 C        -6.9586577355       -0.7669551488        0.1406478004
 C        -6.3902610761        0.3766110242        1.1316002314
 O        -6.9516668929        1.4584943751        1.1837986982
 C        -5.2343255711        0.0479434417        2.0395126825
 C        -6.0784877150       -1.9841692697        0.1118072979
 C        -6.9385226508       -0.1311787224       -1.3216523392
 C       -10.5309895435       -2.8283172209        5.4460150415
 C       -12.0847801342       -3.6414239396        3.5867398637
 C       -10.2677584680        4.7928531894        3.9479563278
 C       -12.7589870909        4.3490913392        4.3002757451
 C       -11.3891025789        4.2359875806       -3.3518083457
 C        -9.7596929411        2.2707893355       -2.7999815694
 C        -6.6343957348        8.5586743812        0.6652393065
 C        -8.1457950292       10.3961911346       -0.2115967045
 C       -10.4024591991        7.8469394239       -6.6171179058
 C       -11.1792775443       10.3121326919       -6.4917158205
 H       -12.2096630751       10.5292010249       -3.7400181165
 H       -13.2195272551        9.2022792582       -3.2112492715
 H       -13.5610679901        9.8389941890       -4.6660952872
 H        -7.8816855738        8.2072050313       -4.7868408961
 H        -9.2440644685        7.6502424551       -3.9528482087
 H        -9.0742013501        9.8264975874       -2.5663427832
 H        -7.4996313606       10.0202461903       -3.3605408885
 H        -9.0811000915        5.9553874598        0.5743949585
 H        -7.9083507245        6.2694035384       -0.6521090926
 H        -9.6588337670        6.3370974454       -2.3500338612
 H       -10.9459698348        6.0843903519       -1.2175445419
 H       -13.6522770280        3.6529386964       -1.0836123883
 H       -12.5350524430        4.9410570501       -0.6001003712
 H       -13.2179877583        2.6476966290        1.4919365413
 H       -13.8573769165        4.2991478193        1.1442605787
 H       -12.8419569947        1.2957991108        4.0593712856
 H       -12.0571427187        1.9028843497        5.4975769759
 H       -11.6877938688       -0.4535797216        5.6816693343
 H       -10.2388660143        0.0838710542        5.2990332371
 H       -10.7395218625       -2.2465095352        1.4378198850
 H       -10.3781919578       -3.9303074723        1.4451883613
 H        -9.3125822127       -2.8906475752       -0.5129159450
 H        -7.9335209908       -3.2435357722        0.4266432316
 H        -5.5948027955       -0.7088499545        2.7573403133
 H        -4.8781493939        0.9240025458        2.4093539122
 H        -4.3449904581       -0.3963984209        1.5304413426
 H        -6.3372104893       -2.7402886869       -0.7813539755
 H        -6.2864810464       -2.5278053728        1.0281335167
 H        -5.0628802330       -1.6596237571        0.0713077424
 H        -6.2948268977        0.8156999331       -1.2822783852
 H        -7.9281900760        0.1927081301       -1.7121572207
 H        -6.5853143157       -0.8995108534       -2.0468417102
 H       -11.1203134381       -2.2201375379        6.1222643217
 H        -9.5674587124       -2.4516045604        5.6575274790
 H       -10.5198272564       -3.9393774933        5.7428256462
 H       -12.8825638796       -3.4901914986        4.3555380581
 H       -11.6734854559       -4.6092908611        3.8531135016
 H       -12.5455475566       -3.5765627833        2.6095955612
 H       -10.5313572276        5.8059473649        3.5749587404
 H        -9.3700486831        4.5393673507        3.3708574397
 H       -10.1856516693        4.8375241578        5.0195256566
 H       -13.0475272235        5.1459366452        3.7010775532
 H       -12.4973217249        4.7131154143        5.2561142455
 H       -13.5240269409        3.5500084081        4.4546861279
 H       -11.9944398736        3.6690531903       -3.9820625305
 H       -10.5246657159        4.5217319925       -4.0707220119
 H       -11.9628918182        5.1058440150       -3.0885730276
 H       -10.2512897656        1.3300543555       -2.5268486385
 H        -8.6977527793        2.4083754229       -2.6168898393
 H        -9.6975568795        2.3467651461       -3.8915823378
 H        -5.8362419661        9.2915096062        0.7156171807
 H        -6.2245279270        7.5601307368        0.3998894416
 H        -7.1170728128        8.4208066219        1.6430140359
 H        -7.4876692784       10.9959695759       -0.8070004996
 H        -8.2566139872       10.8272134381        0.7717581686
 H        -9.1323193972       10.5716220233       -0.5235071949
 H       -10.0658385946        6.9392284104       -6.0597383769
 H        -9.5844032082        8.3354903658       -7.2603792486
 H       -11.2737817908        7.6126791084       -7.1426743775
 H       -10.3523581276       10.8549191475       -6.8049135336
 H       -12.0235888248       10.8142396965       -6.0313235454
 H       -11.5232765057        9.9639772108       -7.5073328147
 Na       -9.0521557898        2.2262164390        0.8883395683
