117

 C       -18.6424690622        4.4361814830       -1.8504067185
 C       -17.2826707714        4.1858877144       -1.1530550398
 O       -16.7449705718        5.0301863283       -0.4511265399
 C       -16.5209803447        2.8612236340       -1.5372183159
 C       -15.1325327425        2.9664180018       -0.7784686140
 O       -14.1347670950        3.1914075118       -1.3980757437
 C       -15.1074746601        2.6868786029        0.7418257544
 C       -13.6908249525        3.1292607093        1.3974491207
 C       -13.0503932214        2.0110760690        2.1313034010
 O       -13.5092224022        0.8828052902        2.2250247891
 C       -11.7740428422        2.2504680628        3.1552777741
 C       -10.6076883326        2.9583541487        2.3963582686
 O        -9.6309733268        2.3004646499        2.0423287007
 C       -10.6152976141        4.4539685114        2.1604616434
 C        -9.5676902689        5.1727853101        3.0307988501
 C        -9.5363718752        6.6231235900        2.6155473211
 O       -10.3206036205        7.1391176573        1.9202157631
 C        -8.4010525936        7.5629812908        3.3202940348
 C        -7.0572468001        6.8197238875        3.2094889387
 O        -6.6462927921        6.0776792407        4.1134016594
 C        -6.2787686794        7.0958955224        1.8731917594
 C        -5.2862366363        5.9884672113        1.5558710027
 C        -5.8507900646        4.6878216865        1.2465239753
 O        -7.0480503514        4.4654030882        1.2127257635
 C        -4.8175177836        3.5013547455        1.1157954868
 C        -5.0295414545        2.8693289551       -0.3236775159
 O        -5.9673372133        2.1337178900       -0.6034181601
 C        -4.0703314591        3.2015217773       -1.4884783638
 C        -4.7232423528        3.1939284149       -2.8205888630
 C        -5.3317791384        4.6587632723       -3.1175959826
 O        -5.2322327420        5.5190211222       -2.2614612370
 C        -6.2404864193        4.9457290853       -4.3653503188
 C        -7.4393589735        3.9106964362       -4.2767249796
 O        -7.3067862611        2.7511746743       -4.3924197498
 C        -8.7187002723        4.5772184301       -3.7415146813
 C        -9.8771891316        3.6360498473       -3.5665671226
 C        -9.9519207250        2.9147748397       -2.2275731799
 O        -9.6121624068        3.4750531735       -1.2068094697
 C       -10.4975716642        1.4574403866       -2.0532914567
 C        -9.2228708581        0.5534417100       -2.0902186287
 O        -8.3421400740        0.6222402583       -1.2916627258
 C        -9.1724403811       -0.5022083215       -3.1183912480
 C       -11.2421224789        1.3704466574       -0.7124894521
 C       -11.5071201778        1.1329249342       -3.1878278341
 C        -6.6017460493        6.4588913465       -4.4166905809
 C        -5.4630276774        4.5091333863       -5.6182494512
 C        -3.3588224406        3.9503036966        1.2999775141
 C        -5.1554178253        2.4908075557        2.2045675322
 C        -8.3791587974        8.9786547834        2.6501678901
 C        -8.7078969150        7.7282601942        4.8384001543
 C       -12.3492724652        2.9945617811        4.3547368546
 C       -11.4112926399        0.8694708379        3.6988158139
 C       -17.3898870099        1.6504857477       -1.1441801716
 C       -16.3963273156        2.9965188790       -3.0667180907
 H       -19.0711218897        5.4194177428       -1.4989768483
 H       -19.2250145359        3.5506481896       -1.8133100812
 H       -18.4767457496        4.5920881468       -2.8948516334
 H       -15.2921324010        1.6634487488        1.0958692583
 H       -15.8797203037        3.3180730650        1.1422497780
 H       -13.9613256641        3.9015759104        2.1940262351
 H       -12.9413928947        3.6243036084        0.6602240444
 H       -11.6912674332        4.7811768125        2.3160176816
 H       -10.5096659325        4.6504398547        1.0992227997
 H        -8.5517645186        4.7646581353        2.7316063592
 H        -9.7015496584        4.8946477414        4.0388129850
 H        -5.7899779536        8.0718774473        1.7105341247
 H        -7.0306509001        7.1080891352        1.0888019667
 H        -4.5368489960        5.9709169912        2.3690542067
 H        -4.5628668247        6.2549642387        0.6979450926
 H        -3.0969323423        2.6731658979       -1.5322061296
 H        -3.8282712105        4.2741601342       -1.3651421143
 H        -5.5520771579        2.5172395047       -2.8220226735
 H        -4.0368966861        3.0472235640       -3.6890061342
 H        -8.9302145721        5.4746602672       -4.3271930395
 H        -8.4084292814        4.9415540463       -2.7984738066
 H        -9.9306145011        2.9880524495       -4.4012644600
 H       -10.8192173373        4.2044925627       -3.6431472289
 H        -9.1516581588       -0.1531943161       -4.1187204319
 H       -10.0713810853       -1.1572614597       -3.0469107235
 H        -8.3386204047       -1.2425873819       -2.9982893769
 H       -10.4879576700        1.1390958689        0.1246009900
 H       -11.9361068888        0.4861986019       -0.7696128542
 H       -11.6919106118        2.3806678414       -0.5768384508
 H       -11.7484483681        0.0928163153       -3.1045176850
 H       -11.1421705960        1.2784154000       -4.2244093516
 H       -12.3348897941        1.7694514245       -3.0687789395
 H        -5.6255495107        7.0002470211       -4.4070101782
 H        -7.1550864857        6.7072957812       -3.4891552651
 H        -7.1186734265        6.7549806914       -5.3782654784
 H        -6.0959865097        4.8987680300       -6.4425065024
 H        -5.3986347806        3.3502897246       -5.7687325833
 H        -4.5003198277        4.9324064381       -5.7723895167
 H        -3.0761423654        4.7988706786        0.7374442632
 H        -2.5577929835        3.1263452184        1.1987714153
 H        -3.2621633051        4.3753944518        2.3037155721
 H        -4.5167631280        1.6153998974        2.1983960348
 H        -6.1739209902        2.1992308220        2.0269975620
 H        -5.0959530830        2.9224609555        3.2410894320
 H        -9.4044544139        9.2508049484        2.5946612315
 H        -7.8813324154        9.0129233133        1.7020390706
 H        -7.8470450224        9.6557105729        3.2327315342
 H        -9.4472322124        8.5116486851        4.9354711251
 H        -7.7827090575        7.9399409931        5.4043260803
 H        -9.1126835299        6.7841382190        5.2323583769
 H       -11.5446544450        3.3160217726        5.0628417177
 H       -13.0441028945        2.3848067079        4.9612733313
 H       -12.9893484407        3.8574426730        4.1686613637
 H       -11.0036412947        0.2175473985        2.9158102374
 H       -12.3053117955        0.2570539602        4.0374923290
 H       -10.7527311121        0.9439920752        4.5542193128
 H       -16.7892345996        0.7287578508       -1.2593963544
 H       -18.2368503583        1.6453519104       -1.8223631391
 H       -17.7387594782        1.6429273115       -0.0885711927
 H       -16.0261920855        2.0440000708       -3.5276439790
 H       -15.6373744292        3.7761180969       -3.2267225871
 H       -17.4022713031        3.1202833854       -3.5709186427
 Na       -8.2594225740        2.6245663617        0.2014323966
