117

 C       -18.7844578176        4.4733157741       -1.8760896449
 C       -17.4336072221        4.2465678823       -1.1949094810
 O       -17.0568965624        5.0688483245       -0.3853848572
 C       -16.5152798790        2.9208595883       -1.5911040680
 C       -15.1630144040        2.9780559774       -0.7932298204
 O       -14.1329080549        3.1239806216       -1.4447009568
 C       -15.0312838470        2.8830948380        0.7449100921
 C       -13.6526617116        3.0727118313        1.3419341319
 C       -13.0562158029        1.9197427666        2.2014722650
 O       -13.5087557469        0.8101453072        1.9763675608
 C       -11.8348324519        2.2833585826        3.2315277206
 C       -10.5945471529        2.9470626162        2.5821232679
 O        -9.6683602034        2.2188327410        2.2532200785
 C       -10.6101912531        4.4969520518        2.3852434541
 C        -9.4727506778        5.3174397235        3.0101339788
 C        -9.5914853049        6.8552102947        2.7005720107
 O       -10.4153991061        7.3650356876        1.9256614230
 C        -8.4158203722        7.7638440763        3.2822778780
 C        -7.0221788945        6.9832335822        3.0529923675
 O        -6.7780844264        6.0756904227        3.8087465245
 C        -6.2971205640        7.1691801716        1.7211942491
 C        -5.1924340591        6.0806051106        1.5655239786
 C        -5.7031091942        4.6361342891        1.3192149823
 O        -6.8924283278        4.4089622703        1.0642807334
 C        -4.7279126946        3.4523301002        1.1822469753
 C        -4.9986100718        2.8252738294       -0.2523554770
 O        -6.0034904551        2.1716242312       -0.4211812283
 C        -4.0970953968        3.1491114048       -1.3753127656
 C        -4.8197673090        3.1965762754       -2.7216508245
 C        -5.3073346172        4.6445555249       -2.9850494636
 O        -5.1584474226        5.6131984935       -2.3063498111
 C        -6.1311044728        4.7084832199       -4.3246134916
 C        -7.4586674848        3.9738041748       -4.2137868916
 O        -7.5011495795        2.7256164997       -4.3194448544
 C        -8.8660676488        4.6111693457       -3.8904781268
 C        -9.9246819934        3.5133476063       -3.7069579392
 C       -10.0051175763        2.9932902947       -2.2541784500
 O        -9.4594598826        3.5891002138       -1.3218274894
 C       -10.6073516540        1.5290864907       -2.0884663099
 C        -9.3364022879        0.5479626474       -2.1629465090
 O        -8.5008657031        0.4178295788       -1.2788153965
 C        -9.2755162846       -0.5048023311       -3.2408209928
 C       -11.1328670552        1.3146444335       -0.6853849686
 C       -11.7343383117        1.2361521124       -3.1351394020
 C        -6.4471703583        6.1594571153       -4.6580622301
 C        -5.2997974064        4.1334765353       -5.5073646772
 C        -3.1893262974        3.8563324048        1.3419899245
 C        -5.0686441018        2.3005380925        2.2034641123
 C        -8.4035286166        9.1565202804        2.5955274965
 C        -8.6153970352        7.9778741306        4.8686336133
 C       -12.3868365541        3.2018435410        4.3872108716
 C       -11.3072457250        0.9686415680        3.8204437877
 C       -17.2868634896        1.6462658222       -1.1117246603
 C       -16.2183383710        2.8402097396       -3.1266833689
 H       -19.3225918510        5.1261731395       -1.2869266501
 H       -19.2509689087        3.5023704948       -2.0897646372
 H       -18.6779735024        4.9856324328       -2.8620077293
 H       -15.3586632718        1.8475649805        0.9893457728
 H       -15.7644914338        3.5752770889        1.2431285266
 H       -13.7627713533        3.9202768699        1.9829526563
 H       -12.9932378773        3.3672154062        0.5486422774
 H       -11.5705889550        4.8525343159        2.6436171071
 H       -10.4628801186        4.6124243052        1.3125607987
 H        -8.5473079575        4.9924069177        2.6527573879
 H        -9.4952758468        5.1729238733        4.1329680231
 H        -5.8194621431        8.1429427746        1.7676855416
 H        -6.9383773938        7.2740464769        0.8252297040
 H        -4.5468506339        6.1669332874        2.4394043556
 H        -4.4951019166        6.2772627226        0.8066690084
 H        -3.3993390151        2.3205957423       -1.4039841089
 H        -3.4959192814        4.0273425674       -1.1886109788
 H        -5.7333218163        2.5439167181       -2.7084706382
 H        -4.1981440370        2.9462325649       -3.5700090285
 H        -9.0831504569        5.3333283215       -4.6907118435
 H        -8.7676257505        5.2267107619       -2.9271736914
 H        -9.6966306364        2.7100307768       -4.4782147812
 H       -10.9175563003        3.8540677086       -4.0568867094
 H        -9.3286508509       -0.0690656294       -4.2739895688
 H       -10.0965250931       -1.1750548433       -3.1952724089
 H        -8.4486149854       -1.1345234831       -3.1031396995
 H       -10.3488898479        1.4313084985        0.0220875778
 H       -11.4264811945        0.3163595419       -0.5848928622
 H       -11.8822626371        2.0358347559       -0.5492639298
 H       -12.2432018738        0.2770758090       -2.8703770763
 H       -11.3858015632        1.0838634762       -4.1472701335
 H       -12.4595955445        2.1113162293       -3.0999924630
 H        -5.6396977695        6.6503461102       -5.1630737231
 H        -6.6868844129        6.6781078179       -3.7676849647
 H        -7.2631840729        6.1031052401       -5.3254191642
 H        -5.7587302433        4.1151869484       -6.4706396592
 H        -4.9285691560        3.2118188425       -5.2546072250
 H        -4.4383740178        4.8240731548       -5.6256019590
 H        -2.8533605095        4.7872440261        0.7718561732
 H        -2.5896837746        3.0682427679        1.0689353253
 H        -2.9075554436        4.1019101642        2.3849782451
 H        -4.2198514540        1.6588675017        2.4759491237
 H        -5.9322824396        1.7362145525        1.8247985151
 H        -5.3730996764        2.6948453077        3.1427253878
 H        -9.3228715722        9.7475822528        2.8125168898
 H        -8.4557900650        9.0070983875        1.4661893981
 H        -7.4235706831        9.6850436462        2.8542735944
 H        -9.6982655876        8.1955826072        4.9644908605
 H        -8.0025980526        8.8008400545        5.1938270026
 H        -8.3388808713        7.1176515448        5.4369877854
 H       -11.5989024991        3.5742067179        5.0212139089
 H       -13.1462381703        2.6896304459        4.9976013141
 H       -12.9221424063        4.1016506039        4.0464182067
 H       -10.9838805562        0.2763246853        3.0730255853
 H       -12.0314243391        0.3874584530        4.2973694361
 H       -10.5356742939        1.1943201021        4.5269538203
 H       -16.8138520359        0.7106440491       -1.4064762084
 H       -18.3013610641        1.6322891332       -1.5824259003
 H       -17.4442027313        1.6973063050       -0.0384670156
 H       -15.2254568419        2.4702727947       -3.3309218909
 H       -16.2975889056        3.8204943673       -3.5829712200
 H       -16.9046403957        2.1375149997       -3.5093608722
 Na       -8.1857705116        2.3750626648        0.3265010489
