117

 C       -18.6354035939        4.2449896915       -2.0174678858
 C       -17.3674197799        4.1875835852       -1.1143485275
 O       -17.1771152019        4.9525937798       -0.2058147271
 C       -16.4402925322        2.9576673488       -1.4793789208
 C       -15.0762742379        3.0728722111       -0.8012911382
 O       -14.0234246169        3.0832828689       -1.3935514951
 C       -15.0250445595        2.9095590842        0.7198295566
 C       -13.5916992576        3.2634512580        1.4241707094
 C       -12.9828090958        2.1189843721        2.1705826373
 O       -13.2144854911        0.9844622930        1.9202029679
 C       -11.8900175265        2.4577438554        3.3235104447
 C       -10.7452537590        3.1640144635        2.5745748936
 O        -9.7684366528        2.5426786750        2.1704524230
 C       -10.7672565030        4.6442855316        2.1929389201
 C        -9.6061712386        5.2694350810        3.0048121399
 C        -9.5435563967        6.8530772119        2.6602359952
 O       -10.4902868712        7.3369856850        2.0833347889
 C        -8.3537855131        7.7845489664        3.1462858671
 C        -7.0557672756        6.9517667946        2.9148964000
 O        -6.7127444779        6.1211569342        3.7714239522
 C        -6.2533096689        7.0896683457        1.5665199850
 C        -5.1628139369        6.0039202952        1.4718907481
 C        -5.7334712873        4.6118693497        1.3318864581
 O        -6.9076402871        4.4840886806        1.0955590950
 C        -4.7006932771        3.4013348879        1.3191242712
 C        -4.9318100188        2.8266790447       -0.1642971784
 O        -5.9528847801        2.1933448504       -0.3685072501
 C        -3.9308656364        2.9930214976       -1.3585702724
 C        -4.6469597865        3.1591163653       -2.7539169611
 C        -5.3430926981        4.5136122951       -3.0753267301
 O        -5.1993231374        5.4897599257       -2.3258490339
 C        -6.1649256651        4.5785364138       -4.4113522490
 C        -7.4995513865        3.8258029629       -4.2501588840
 O        -7.3789462035        2.6564638131       -4.1602594820
 C        -8.8767321788        4.4793642624       -4.1215575661
 C       -10.0934588789        3.6389561824       -3.5854340566
 C        -9.8783519720        2.9181543102       -2.2939200558
 O        -9.2058932187        3.4125095217       -1.3943848037
 C       -10.7121001791        1.4755828905       -2.1240395924
 C        -9.4739060103        0.4568432765       -2.1397777679
 O        -8.5851143798        0.5732953002       -1.2975056574
 C        -9.3393109025       -0.3940434428       -3.3587349789
 C       -11.2912270230        1.4583478281       -0.6474685567
 C       -11.8067204763        1.2573872458       -3.1841593617
 C        -6.3269651885        6.0529231001       -4.8729170822
 C        -5.4247733145        3.8533149935       -5.5805642732
 C        -3.2468836547        3.7984416838        1.5562910465
 C        -5.0677364364        2.4311661403        2.4439692075
 C        -8.4406191437        9.1082390567        2.4215022020
 C        -8.5631404596        7.9935959589        4.6708138163
 C       -12.6441638646        3.2629617421        4.3744073147
 C       -11.5232474612        1.0424506347        3.8804446506
 C       -17.1559319085        1.7214876126       -0.8869809131
 C       -16.2532023324        2.8761152442       -3.0886573973
 H       -19.5129818078        4.6393736498       -1.3909841648
 H       -18.8627911135        3.3111194460       -2.5401825209
 H       -18.4776768957        5.0070836238       -2.7417039966
 H       -15.3411050939        1.8929514968        0.8688140001
 H       -15.8020771430        3.5211898167        1.1012801584
 H       -13.5785982883        4.2482846772        1.9043310850
 H       -12.9584817663        3.4539471403        0.5390878541
 H       -11.7278787694        5.1703411965        2.5473347566
 H       -10.4516311441        4.8520070901        1.1158181051
 H        -8.5482172465        4.8214252231        2.7388620289
 H        -9.7559214543        5.2477702163        4.0806449354
 H        -5.8970494121        8.1167241915        1.3473430192
 H        -6.8959040348        6.8436586002        0.7192077530
 H        -4.6077702437        5.9476743171        2.4192401397
 H        -4.2954381059        6.1980287229        0.7742551245
 H        -3.2783619117        2.0832773273       -1.4295505103
 H        -3.2396772291        3.8509099458       -1.2496819219
 H        -5.3952558092        2.4277198916       -2.9720430574
 H        -3.8823595760        3.0857490978       -3.5812230162
 H        -9.0728265001        4.9830480636       -5.0704260274
 H        -8.7549840400        5.2434769165       -3.4340435090
 H       -10.5320992375        3.0696249850       -4.3461313280
 H       -10.8410317658        4.4175668492       -3.4552884437
 H        -9.3105641966        0.1768418652       -4.2456265740
 H       -10.1326483470       -1.1628354550       -3.5356366362
 H        -8.4512733899       -1.0333773849       -3.1464210431
 H       -10.6801047746        2.0383749587        0.0005120090
 H       -11.1633985543        0.4225760308       -0.2301319340
 H       -12.3716590723        1.7773458965       -0.6820206471
 H       -12.2917698653        0.3033465964       -3.0936966705
 H       -11.3762603720        1.2781285149       -4.2031173209
 H       -12.5568813738        1.9950052411       -3.0567766505
 H        -5.3607629062        6.5081197350       -4.7511482345
 H        -6.9709278884        6.5674410354       -4.1108722235
 H        -6.7030974074        6.1245831486       -5.8918868867
 H        -5.7518848098        4.3857866681       -6.4968872575
 H        -5.7735109036        2.7879291758       -5.5589201452
 H        -4.3463663425        3.8768494065       -5.5637922789
 H        -2.9240911476        4.4752897148        0.8380681739
 H        -2.5298348658        2.9007626976        1.4346744828
 H        -3.0644402601        4.1545358503        2.5420629780
 H        -4.4903536324        1.5093913982        2.3548708276
 H        -6.1331765328        2.1779817830        2.5095529814
 H        -4.7700459789        2.7889742506        3.4639283880
 H        -9.2997084847        9.6206139665        2.8675846863
 H        -8.7783526555        9.0373151437        1.4206898271
 H        -7.5450549812        9.6936607000        2.5354242224
 H        -9.5795270987        7.8602812206        4.9579231689
 H        -8.0868470678        8.9464959057        4.9332937837
 H        -7.9081467947        7.2127938269        5.1338362051
 H       -11.9840105676        3.5357458346        5.2187703501
 H       -13.4948881208        2.7005948370        4.7272982648
 H       -12.9703150712        4.2435997376        4.0113595236
 H       -11.1983138262        0.3382626934        3.1096624523
 H       -12.4138419247        0.4929189019        4.2406026670
 H       -10.7777518722        1.0373467287        4.7039785541
 H       -16.6009346958        0.7830441959       -1.0332272806
 H       -18.0576075084        1.4971910062       -1.4352651690
 H       -17.4718585999        1.9507593880        0.1274812002
 H       -15.2065570447        2.7165101475       -3.3762797146
 H       -16.5563068743        3.8499563926       -3.4189567834
 H       -16.9567124844        2.1180169321       -3.4902204926
 Na       -8.1402729170        2.3002682583        0.5762171060
