117

 C       -18.5240567956        4.2033279568       -2.0339999461
 C       -17.3233159389        4.1403487916       -1.0719206565
 O       -17.1888193326        4.8632240743       -0.1068785505
 C       -16.3902816574        2.9374196103       -1.3903288632
 C       -14.9968744731        3.0084953534       -0.7286818187
 O       -14.0249380458        3.1701771555       -1.4921730365
 C       -15.0093195024        2.9418092807        0.7814230351
 C       -13.6518537549        3.4446065693        1.4080869192
 C       -12.9934992195        2.2277614887        2.0954229098
 O       -13.1921150331        1.0694849128        1.7780469672
 C       -11.9971181504        2.5454566085        3.2866610091
 C       -10.7517436222        3.1835585602        2.6193994831
 O        -9.8444897820        2.4798961685        2.1675323428
 C       -10.8441724567        4.6973380868        2.3073531062
 C        -9.6582786621        5.3921463527        3.0010528551
 C        -9.6416118025        6.8766776276        2.6444114942
 O       -10.6038373441        7.3960252871        2.0466256850
 C        -8.3630107520        7.6625630098        3.0544942192
 C        -7.0354158927        6.8744403068        2.8640864198
 O        -6.6029450891        6.1665917722        3.7475222844
 C        -6.3155565832        7.0358895888        1.5837088383
 C        -5.1525914523        6.0239179685        1.4315536841
 C        -5.7161171704        4.6058392845        1.3343970922
 O        -6.9159276252        4.4106383482        1.2028968571
 C        -4.7257508056        3.4343610834        1.2446634492
 C        -4.9474331429        2.7954627174       -0.1709597825
 O        -5.9243803922        2.1124714814       -0.4239112741
 C        -3.9788690225        3.0893111446       -1.3606167107
 C        -4.5405575943        3.0393467519       -2.7048555945
 C        -5.3224879819        4.4037789110       -3.1315502913
 O        -5.3051570057        5.3478207106       -2.3884202395
 C        -6.1301511490        4.4386827237       -4.4775613080
 C        -7.4987796521        3.6677439715       -4.1338093402
 O        -7.4580653387        2.4218259637       -3.9823109295
 C        -8.8677070340        4.5596081524       -4.0063435515
 C       -10.1644197247        3.7490710139       -3.5617051517
 C        -9.9451033254        2.9689797254       -2.3004532294
 O        -9.0584587491        3.2586367937       -1.5267976417
 C       -10.6819403354        1.6275894188       -2.0780049706
 C        -9.4406518746        0.5763463075       -2.1495780720
 O        -8.5726610804        0.5214061758       -1.2463470216
 C        -9.3148109598       -0.3420318673       -3.3605936458
 C       -11.4115878508        1.5417850487       -0.6864455000
 C       -11.6637660575        1.2568043050       -3.1638490581
 C        -6.2908201965        6.0156629101       -4.8202647684
 C        -5.3506491050        3.7426549540       -5.6435067650
 C        -3.2277731685        3.8476606031        1.5602706950
 C        -5.2373140605        2.5144023497        2.4455307385
 C        -8.4199859295        8.9833250014        2.2478757726
 C        -8.4796727651        7.9403839985        4.6270499228
 C       -12.7203863473        3.4347180424        4.3739765870
 C       -11.4619881088        1.2235675919        3.8839282436
 C       -17.1012180275        1.6808807056       -0.8487376645
 C       -16.2253880510        2.8751065589       -2.9517479125
 H       -19.4549628377        4.3748446692       -1.5539820435
 H       -18.5827263002        3.2590501337       -2.6630256989
 H       -18.3548065802        5.0409070527       -2.7051870177
 H       -15.3148335905        1.9529644733        1.0578635547
 H       -15.8604037942        3.6030021097        1.0480429114
 H       -13.7880881800        4.3580783766        2.0612020646
 H       -13.0391258397        3.9089628594        0.5369217409
 H       -11.7210811381        5.1519195873        2.6852439104
 H       -10.6240921823        4.8831749109        1.2362681416
 H        -8.6838846600        5.0720420681        2.6622520227
 H        -9.6664470529        5.4027788901        4.0805908476
 H        -5.8836574717        8.0591284726        1.5532890523
 H        -6.9333541058        6.9393923962        0.6816380302
 H        -4.4033127225        6.1362281191        2.2811412963
 H        -4.4801186993        6.2289118996        0.5538746290
 H        -3.1458236169        2.3595828929       -1.3928864663
 H        -3.5051107458        4.0755856317       -1.2490024654
 H        -5.3174758879        2.2727965220       -2.7851677783
 H        -3.7612135085        2.7646188615       -3.4194465315
 H        -8.9693771361        4.8795833610       -5.0640877015
 H        -8.7095415157        5.4179276912       -3.4157853700
 H       -10.4316484788        3.0900596619       -4.3992365252
 H       -10.9785624469        4.4325335691       -3.5771527683
 H        -9.2134970251        0.1388518898       -4.3661357784
 H       -10.1756416854       -1.0237945626       -3.4863332787
 H        -8.5563665338       -1.0459066345       -3.0891629509
 H       -10.9405623392        2.2251182920        0.0418877183
 H       -11.3153573312        0.5016286148       -0.2117920823
 H       -12.4923996671        1.8294942453       -0.9376885038
 H       -12.0657845121        0.2642054825       -2.9744588681
 H       -11.2345335015        1.2716488673       -4.1250288418
 H       -12.5558157937        1.8715915266       -3.0867523005
 H        -5.2910569959        6.4150783003       -4.5535835503
 H        -6.9546905210        6.5006146811       -4.0320554117
 H        -6.6046372161        6.2301366495       -5.8604092278
 H        -5.7627118336        4.2582442670       -6.5652617159
 H        -5.6243374988        2.7234000241       -5.6447237447
 H        -4.2102357532        3.8475771837       -5.6464568059
 H        -2.8056624744        4.4253680093        0.6893641729
 H        -2.5445693559        3.0312910265        1.6775877992
 H        -3.1899258079        4.3866583346        2.5188545396
 H        -4.8028469134        1.5435318585        2.1923882598
 H        -6.3142239938        2.3746508248        2.6823036642
 H        -4.7434571742        2.7200569935        3.3737813579
 H        -9.3022237325        9.5051825512        2.4914688886
 H        -8.4846396023        8.9428131365        1.2158023492
 H        -7.6136768464        9.4861270053        2.6868237380
 H        -9.5210852459        8.0744678739        4.8253610211
 H        -7.8302684489        8.7756309577        4.8982210340
 H        -8.0996493415        7.0335198788        5.1552448634
 H       -12.1181462630        3.5091435305        5.3136465698
 H       -13.6650905949        2.9517783117        4.6074086064
 H       -12.8610226692        4.5085484893        4.0931042593
 H       -10.8699082240        0.6220123407        3.1528677171
 H       -12.1880343149        0.5025114361        4.2010157970
 H       -10.7766412731        1.4414744597        4.7717125540
 H       -16.4661250776        0.7797307729       -0.8312442611
 H       -17.9498278643        1.2943691961       -1.4241999020
 H       -17.4968421725        1.9720882595        0.0911296431
 H       -15.1761225232        2.5225236576       -3.1241989734
 H       -16.3150025327        3.9134861024       -3.3635203081
 H       -16.9823460105        2.2065890064       -3.4095067494
 Na       -8.1601730580        2.3474519006        0.5571925331
