117

 C       -12.7573948538        9.4613916816       -4.0732329420
 C       -11.7929362962        8.4746307030       -4.7498749650
 O       -11.7818350181        7.2866675869       -4.3198699597
 C       -10.8124409661        9.0384877067       -5.8598811809
 C        -9.4137757618        9.5263906416       -5.0518515775
 O        -9.0960888909       10.6890118750       -5.1434056522
 C        -8.5463671619        8.5283362595       -4.0693387252
 C        -8.1962960035        9.3469726190       -2.8770241545
 C        -7.3296672785        8.5690043833       -1.7946581775
 O        -6.4504576733        7.8064785603       -2.1011894924
 C        -7.7827460932        8.8224196241       -0.3155578322
 C        -9.0804613621        8.0058064223       -0.2184331390
 O       -10.2065841050        8.5543710207       -0.0751937468
 C        -8.9191750254        6.4962840414       -0.4845269141
 C        -9.8779434344        5.8344778252       -1.4840113360
 C        -9.6421148117        4.3634940156       -1.5045379828
 O        -8.8112409424        3.8560262922       -0.8158332206
 C       -10.6659893387        3.3984860391       -2.2861708669
 C       -11.5036122180        2.9718078824       -0.9966724026
 O       -11.1646820525        1.9728689324       -0.3933452770
 C       -12.7463361697        3.7899868367       -0.4046651708
 C       -12.7733975097        3.6116275429        1.2098880242
 C       -11.5150545728        4.0027415789        1.9202491505
 O       -10.6092639835        4.4758645889        1.2578018425
 C       -11.4444462527        3.8875993306        3.4490369953
 C       -11.0290474889        2.3595275477        3.6719274475
 O       -10.0706469094        2.0006030850        3.0331109573
 C       -11.9486203047        1.3334052663        4.4456947157
 C       -11.2277749895        0.0021159777        4.8822002955
 C       -11.4335137742       -1.1275924278        3.8139367188
 O       -11.8555920650       -0.8171996453        2.7606742410
 C       -10.9906449660       -2.5031522355        4.1688341801
 C        -9.6537125698       -2.6644417050        3.1910161206
 O        -8.5342470486       -2.5189003105        3.6789876634
 C       -10.0029773035       -2.8811010288        1.6671035294
 C        -8.8612328780       -2.5582558789        0.6601892074
 C        -8.4672540543       -1.1076402086        0.5260522259
 O        -9.2931008832       -0.2227232970        0.4703385357
 C        -6.9739621725       -0.7504323761        0.1513048687
 C        -6.5185629290        0.3830256957        1.1154527330
 O        -6.8693482270        1.5326756675        0.9602019610
 C        -5.3336614212        0.0859760860        2.0504265802
 C        -5.9393844525       -1.9271136876        0.0442228931
 C        -7.0368848815       -0.0548221170       -1.2306538066
 C       -10.5000170297       -2.7038948011        5.5992229637
 C       -12.2255021480       -3.4583646250        3.7298550822
 C       -10.2363467146        4.7898683616        4.0482807480
 C       -12.6674969757        4.2883926398        4.3232540661
 C       -11.4676287566        4.1761701808       -3.3188933931
 C        -9.9090999522        2.2316727165       -2.9035621938
 C        -6.6129129638        8.4092635448        0.6076309823
 C        -8.1469141924       10.3628882431       -0.1251697955
 C       -10.5553417384        7.8400724288       -6.7782206253
 C       -11.3480820309       10.2896928400       -6.6094082742
 H       -12.0412794976       10.2346775476       -3.6780883840
 H       -13.3998608313        9.0603940812       -3.3211641415
 H       -13.4216998738        9.9366315991       -4.7005653891
 H        -7.7033633619        8.0438377161       -4.4872336492
 H        -9.1424197291        7.6796069998       -3.7109668490
 H        -9.2269156079        9.6046026114       -2.5393253028
 H        -7.6862288914       10.3071799966       -3.1430012756
 H        -9.0417548149        5.9799052134        0.4964547129
 H        -7.9347954897        6.2517574537       -0.7815728896
 H        -9.7064626457        6.3297998806       -2.3605642442
 H       -10.9260641091        5.9531596503       -1.3037315859
 H       -13.6858694797        3.4244223943       -0.8649608638
 H       -12.7579500617        4.8869441196       -0.6423720432
 H       -12.9877585712        2.5745725258        1.6055755478
 H       -13.5689007581        4.2918859285        1.4591970194
 H       -12.6898400536        1.0735880934        3.7011717730
 H       -12.3705376594        1.8081053279        5.2860003367
 H       -11.3271408864       -0.3706764219        5.8549075418
 H       -10.1596180604        0.0271735058        4.8946429790
 H       -10.9033210075       -2.3116180058        1.4413285769
 H       -10.2619302446       -3.9609497472        1.5950910768
 H        -9.1022893935       -2.9276417027       -0.3425549353
 H        -8.0140806585       -3.2705080391        0.8787508010
 H        -5.6001497915       -0.4597391311        2.8984105908
 H        -4.8387012493        1.1088557446        2.1942621950
 H        -4.5529740841       -0.4757280119        1.5949767199
 H        -6.4650625147       -2.7249699577       -0.4750190839
 H        -5.7511744965       -2.3285014284        1.0930267423
 H        -5.0174101087       -1.6245631155       -0.4602326630
 H        -6.1101186861        0.5837490274       -1.3762212998
 H        -7.8611195191        0.6416591217       -1.3011383882
 H        -7.1989805535       -0.8311488276       -2.0100199291
 H       -11.0388964703       -1.9724640666        6.2409141051
 H        -9.4472141528       -2.4005504880        5.8409225108
 H       -10.6258632777       -3.7561987000        5.9696196366
 H       -13.1965509555       -3.1800671710        4.2423574062
 H       -12.0305180089       -4.5674752220        3.9280560355
 H       -12.3753042138       -3.2205930165        2.6270401154
 H       -10.3670874273        5.8589795781        3.9874217016
 H        -9.3530763571        4.5503284380        3.4508464243
 H       -10.1899965900        4.4922731029        5.1386836318
 H       -13.0102224095        5.2539482264        3.9655312899
 H       -12.3002160611        4.4390666768        5.3124276071
 H       -13.4260665236        3.4574391459        4.4036592676
 H       -12.2088751170        3.5787565076       -3.8288404740
 H       -10.8180643617        4.3738495074       -4.1516861670
 H       -11.9387110926        5.1146112010       -2.9865367028
 H       -10.4123257241        1.2657970665       -2.8878479212
 H        -8.9192548995        2.2905550326       -2.5128389254
 H        -9.6013264818        2.5352492874       -3.9415679901
 H        -5.7087764733        8.9907326289        0.4272235859
 H        -6.4053264006        7.3718487602        0.4113026782
 H        -6.9322884718        8.4543637135        1.6491495441
 H        -7.3128345334       10.9198758050       -0.5477428866
 H        -8.3529122696       10.7010215277        0.8654677855
 H        -9.0329994266       10.7418810348       -0.5762106969
 H       -10.5950176216        6.9179620121       -6.2134775887
 H        -9.6351665427        8.0030498620       -7.3599787625
 H       -11.4420129562        7.8232843631       -7.4072397373
 H       -10.5327011481       11.0098366006       -6.6325050419
 H       -12.2784741521       10.5865603855       -6.1538256058
 H       -11.4766801994       10.1490495116       -7.6363999405
 Na       -9.0936263510        2.2730500969        0.9487443176
