117

 C       -18.4312620489        4.1945257154       -2.3128248267
 C       -17.5007972375        3.9589902398       -1.1583866538
 O       -17.7422190353        4.4387824698       -0.0697977425
 C       -16.4665393018        2.8617940600       -1.3917875309
 C       -15.0959623533        3.1773011610       -0.5549055768
 O       -14.2044681954        3.7041004182       -1.1513094192
 C       -15.1810533020        3.0056016350        0.9565680515
 C       -13.8944359518        3.6101029787        1.6201896612
 C       -13.0294869362        2.4761319442        2.1745097102
 O       -13.1641548132        1.4172293499        1.6281231509
 C       -11.8713296916        2.7217706763        3.3415325541
 C       -10.5871395088        3.2563579814        2.5987944630
 O        -9.8209218554        2.4036440847        2.2235661181
 C       -10.5119058469        4.7226392513        2.1910792745
 C        -9.4891995375        5.5792812258        2.9770842742
 C        -9.5568595307        7.1110508011        2.5003150341
 O       -10.4127267249        7.5806499630        1.8174002214
 C        -8.3052505576        7.9886359084        2.9825827556
 C        -7.0771366874        7.0882653121        2.6010404557
 O        -6.5904490376        6.4103908233        3.5035404085
 C        -6.4670612214        7.0123505765        1.1939457088
 C        -5.3706821626        5.9138365586        1.1394574632
 C        -5.9124486173        4.4738509441        1.1515759529
 O        -7.1345167232        4.2752529524        1.1706385860
 C        -4.9032134422        3.2735184776        1.1905908242
 C        -5.1351847676        2.6607805429       -0.2426835184
 O        -6.1644826986        2.1248848817       -0.5494700270
 C        -3.9255280321        2.6334057907       -1.2526314678
 C        -4.4262983159        2.8961088357       -2.6577681221
 C        -5.4298302076        3.9623968236       -2.9913633302
 O        -5.5327167502        4.8866185621       -2.2058581861
 C        -6.0017851488        3.9998673713       -4.4805428039
 C        -7.5658964130        3.6800904158       -4.1548021227
 O        -7.8420771327        2.5307321539       -3.9481486931
 C        -8.6686321218        4.7022022724       -4.0868360682
 C        -9.9233209768        3.9695593956       -3.5995343613
 C        -9.7867534424        3.1509392659       -2.2877421255
 O        -9.2421845780        3.6461025918       -1.3106595867
 C       -10.3599218677        1.6443206373       -2.0632081286
 C        -9.2385639726        0.5621964315       -1.7445376110
 O        -8.7001685530        0.6252318438       -0.6588428407
 C        -8.9924678552       -0.3843254403       -2.8402994612
 C       -11.3350606801        1.7367374887       -0.8347917254
 C       -11.1699253011        1.1483284693       -3.2166608598
 C        -5.7556267617        5.3345569393       -5.1616219391
 C        -5.4342213311        2.8522597542       -5.3864737514
 C        -3.4886267109        3.7142347266        1.5648856682
 C        -5.4315774636        2.3637949692        2.2828761618
 C        -8.3055571755        9.3190865049        2.1717448371
 C        -8.2122995810        8.2104822756        4.5110293713
 C       -12.3576003936        3.7907702066        4.3555412292
 C       -11.5557680311        1.3650626861        3.9564436559
 C       -17.0281783465        1.5226911247       -0.8573662734
 C       -15.9772890779        2.7144498645       -2.8556081840
 H       -19.3346239347        4.7256566619       -1.9952762096
 H       -18.8635868128        3.2863097637       -2.5945292866
 H       -17.9113970625        4.7248454531       -3.1489445672
 H       -15.1307952170        1.9443130012        1.1554180831
 H       -16.1906984666        3.2852490484        1.2501222721
 H       -14.1372251085        4.3286596631        2.4502234033
 H       -13.2775962492        4.2938939307        0.9468508467
 H       -11.5467423818        5.1232787630        2.2199628625
 H       -10.1678524118        4.6411691520        1.1777798076
 H        -8.5569838364        5.1984186391        2.7161598588
 H        -9.5884923574        5.5865120591        4.0741323012
 H        -5.9871575595        7.9496866897        0.9473722894
 H        -7.1636542867        6.7279399008        0.3624778833
 H        -4.5280634267        6.1470343370        1.8773763816
 H        -4.8940154983        5.9547675364        0.1263052205
 H        -3.3459740159        1.7031447198       -1.1798452525
 H        -3.2403727141        3.4595459167       -0.9951912789
 H        -4.8601959455        1.9801346627       -3.1259216636
 H        -3.5862438098        3.0600058036       -3.3086094689
 H        -8.7097667282        4.9763288308       -5.0990715214
 H        -8.3872965545        5.5936844586       -3.4566432350
 H       -10.2632608663        3.3910288538       -4.4445633787
 H       -10.6846260651        4.7207660855       -3.4267838882
 H        -8.5611957382        0.1561656846       -3.7194437296
 H        -9.8535196356       -0.9249052796       -3.2284770471
 H        -8.1902135123       -1.0710106645       -2.4647540115
 H       -10.8381717414        1.3506508684        0.1137915576
 H       -12.2891552601        1.2251543896       -1.1015796429
 H       -11.6729674016        2.7937828750       -0.6033848280
 H       -11.5201002260        0.1574437888       -2.9711730265
 H       -10.5498991973        1.0621037860       -4.0808760072
 H       -12.0576959298        1.6842963853       -3.5366687396
 H        -4.6555307761        5.4866877490       -5.3436178837
 H        -6.2506049225        6.1282431581       -4.6346267923
 H        -6.2261099381        5.2539108257       -6.1935138693
 H        -5.7965800529        3.0672739336       -6.3781380719
 H        -5.9573924722        1.8554097323       -5.1188592038
 H        -4.3464903546        2.7854977758       -5.3471450282
 H        -2.9843126732        4.4057514660        0.8740139808
 H        -2.8433829806        2.8557016820        1.8138340706
 H        -3.6962507274        4.2484363729        2.5128785439
 H        -4.8190024913        1.4812130869        2.5180120496
 H        -6.3387212330        1.9103470804        1.9094023595
 H        -5.7783626103        2.8727044677        3.1809979098
 H        -9.0633507553       10.0006748341        2.3482791840
 H        -8.3437873582        8.8978523857        1.1638823094
 H        -7.3870769676        9.7989614841        2.3319018582
 H        -9.1561693761        8.7933603461        4.7030244020
 H        -7.3751045843        8.8644247003        4.7404679435
 H        -8.1691489259        7.2576389871        4.9700430326
 H       -11.6177493010        3.8313908868        5.1409761962
 H       -13.3117992371        3.4065027168        4.8048386418
 H       -12.5652150324        4.7418344020        3.8573309580
 H       -11.0905905675        0.6382808079        3.2748229235
 H       -12.4453772568        0.9807609162        4.5429556109
 H       -10.7939605708        1.4238781302        4.7148526242
 H       -16.2751599488        0.7488191762       -0.7518522200
 H       -17.8269545248        1.1476569360       -1.5123074229
 H       -17.5019317973        1.5813917072        0.1679174125
 H       -15.5433517285        1.7303368580       -2.8621840565
 H       -15.2215042880        3.4995055659       -3.0387325279
 H       -16.8163802534        2.8812319054       -3.5429538048
 Na       -8.3873744650        2.4301971994        0.5531906523
