117

 C       -18.5244505853        4.2623705009       -2.5008731292
 C       -17.6813304566        3.8586300397       -1.3281133311
 O       -17.9842820947        4.2671514367       -0.2160689128
 C       -16.4976847739        2.8429778914       -1.4325596779
 C       -15.2317648420        3.3793147016       -0.4879650935
 O       -14.1946405380        3.9008001303       -0.9207082357
 C       -15.2374562268        3.1414542242        1.0743467140
 C       -14.0529709350        3.5701696742        1.9307288389
 C       -12.9958648577        2.4982342012        2.2364338728
 O       -12.9760945969        1.3583465215        1.7836811003
 C       -11.8487438672        2.9284447494        3.3178727637
 C       -10.5968724139        3.3399555695        2.5480562614
 O        -9.6424538879        2.5484908272        2.4543803508
 C       -10.3822095322        4.7528172491        1.9378501954
 C        -9.6548953440        5.5572502306        2.9635733766
 C        -9.4717484932        6.9958856727        2.4518671091
 O       -10.2962228448        7.4928135451        1.7296878966
 C        -8.2093674045        7.9323514228        2.8911434120
 C        -6.8921970730        7.1332290299        2.6209026536
 O        -6.2658329912        6.4872408937        3.4056980195
 C        -6.5371834130        6.9995629023        1.1518794250
 C        -5.4074454331        5.9805522415        0.9009415796
 C        -6.0288175212        4.5812247258        1.1296436630
 O        -7.2173583274        4.4509171149        1.1628175625
 C        -5.0799138532        3.2472986194        1.1179684929
 C        -5.1854241707        2.5978909357       -0.2403011745
 O        -6.3076679331        2.2319319288       -0.6183010228
 C        -3.9890870389        2.7503619418       -1.1644687163
 C        -4.3968290665        2.5633633684       -2.6405340625
 C        -5.3405746888        3.7091510246       -3.0372829935
 O        -5.5086735991        4.6284784430       -2.2825803222
 C        -5.9740533305        3.7296770229       -4.4698350028
 C        -7.4680581974        3.4474272582       -4.1344292075
 O        -7.8135390968        2.2618735238       -3.9848869874
 C        -8.5738625639        4.5953597258       -3.8620434910
 C        -9.9611080535        4.0323396755       -3.4277832408
 C        -9.7789661327        3.1510955303       -2.1959345420
 O        -9.1971311380        3.7045950531       -1.2944945511
 C       -10.4015000608        1.6952481493       -2.1302979091
 C        -9.2794935650        0.6376468956       -1.6696790829
 O        -8.7703228440        0.7899135124       -0.5722965244
 C        -8.6291464135       -0.4465967832       -2.6250692907
 C       -11.4024125670        1.7484141161       -0.9851690979
 C       -11.1012636701        1.3297420675       -3.4068121850
 C        -5.6908731262        5.1823255847       -5.0593571792
 C        -5.4425352367        2.6202869190       -5.4308205078
 C        -3.6112848551        3.6419212220        1.5518204397
 C        -5.6470618289        2.3160896109        2.2130625069
 C        -8.2297124277        9.1967098817        2.0711815779
 C        -8.4175204244        8.2793433435        4.4466058072
 C       -12.2986780832        3.9452936697        4.4014863040
 C       -11.4902205116        1.6293285584        3.9967513092
 C       -17.0474391912        1.5497018209       -0.8456260955
 C       -15.9329894732        2.6289396148       -2.8389416126
 H       -19.4154310015        4.7168766129       -2.1734092876
 H       -18.9187564658        3.3843527007       -3.0843758520
 H       -17.9584435885        4.9446382545       -3.0895063220
 H       -15.5958306587        2.0951755530        1.2787541748
 H       -16.1123976586        3.7625377415        1.3954104559
 H       -14.3831290208        4.0889957750        2.8274415075
 H       -13.5946871101        4.3967676507        1.3862422425
 H       -11.3320037399        5.1724146263        1.6088954716
 H        -9.8675165728        4.6298600817        0.9515616811
 H        -8.6985333992        5.0058298759        3.1473273310
 H       -10.2446949007        5.6368287571        3.8792920430
 H        -6.2106563472        8.0183546916        0.8437805262
 H        -7.3225071254        6.6455810617        0.5190959225
 H        -4.6810453013        6.1329217461        1.6510481326
 H        -4.9250536489        6.0282325561       -0.0588476270
 H        -3.4131335944        1.8707446729       -0.8469741503
 H        -3.3737440736        3.6259100332       -1.0044458335
 H        -4.7380199101        1.5602433239       -2.8761774565
 H        -3.4906637015        2.6852380528       -3.3036567900
 H        -8.6927744538        5.2182386475       -4.8364472384
 H        -8.1729237896        5.2054090818       -3.0662724710
 H       -10.3720496778        3.5822131666       -4.3630141008
 H       -10.6237770019        4.8996534630       -3.1751351836
 H        -8.4987836092        0.0029998919       -3.6194616717
 H        -9.2595674660       -1.3082819639       -2.8405063887
 H        -7.6463642618       -0.6642869159       -2.3201925699
 H       -10.9063065296        1.8980877537       -0.0408859707
 H       -11.9902821894        0.8615114819       -1.0489945623
 H       -12.1005210118        2.5360271385       -1.0910693648
 H       -11.6217042433        0.3551787058       -3.3230438427
 H       -10.5879107991        1.3219545499       -4.3744956913
 H       -11.8476769498        2.1288821599       -3.5396099380
 H        -4.6196561116        5.3064728310       -5.1724552903
 H        -6.1715774077        5.9269411893       -4.3820118782
 H        -6.1177273859        5.2891383074       -6.0409421308
 H        -5.7719427779        2.7469739303       -6.4835285126
 H        -5.7856482879        1.7157852580       -5.0795180955
 H        -4.3289387612        2.6541980127       -5.3994100949
 H        -3.2704336433        4.4887955629        0.8933257352
 H        -3.0407254887        2.7707945407        1.3638798057
 H        -3.4462252584        3.9787329381        2.5844248315
 H        -5.1007191715        1.3898897064        2.2485492185
 H        -6.6867037855        1.9630791842        2.2460202918
 H        -5.5093305038        2.8279763868        3.1430033967
 H        -9.1693526327        9.6671657057        2.4237900950
 H        -8.2080108061        8.9692961090        1.0031930134
 H        -7.3975285352        9.9044466786        2.2909503901
 H        -9.4307711926        8.4099815557        4.7028356258
 H        -7.9027229178        9.2108264729        4.6104673852
 H        -7.8894746257        7.4522017061        4.9397883927
 H       -11.4495257903        3.9478760244        5.1221301224
 H       -13.1820447183        3.5488299047        4.8684505636
 H       -12.5742434402        4.9114788494        3.9515470038
 H       -11.1169158044        0.9334179636        3.2704155390
 H       -12.3053997360        1.2643120468        4.5188302701
 H       -10.6676973847        1.6517911581        4.7324137767
 H       -16.2760781896        0.7670097660       -0.7103204741
 H       -17.8772560551        1.2124929962       -1.4603722878
 H       -17.4053557500        1.6127323576        0.1430691197
 H       -14.8446284892        2.4154442978       -2.7443896547
 H       -16.1547028599        3.5099092776       -3.4397176951
 H       -16.4744462831        1.7614019957       -3.2247916843
 Na       -8.3777060409        2.5700793955        0.5424752782
