117

 C       -18.3981474361        4.2144686514       -2.5994076859
 C       -17.6444254594        3.8998584082       -1.2624830219
 O       -18.0980099474        4.2535327395       -0.2061354398
 C       -16.3752835362        2.8224933295       -1.3110600199
 C       -15.2186885913        3.3331588668       -0.3988061758
 O       -14.3381431318        3.9550476978       -0.9493939494
 C       -15.4041272445        3.1562733251        1.1226921979
 C       -14.1131856939        3.5859172329        1.9501524367
 C       -13.0241169836        2.5227400409        2.2711132613
 O       -12.9968642042        1.4329478918        1.7642363624
 C       -11.8701671121        2.9329610526        3.3390897533
 C       -10.5709432548        3.3413360619        2.5713092950
 O        -9.6419506972        2.5676233084        2.5233800978
 C       -10.3953895050        4.7885208479        1.9720784854
 C        -9.6226100008        5.6467314179        2.9743683820
 C        -9.4953718537        7.0636139008        2.4255939669
 O       -10.2359950289        7.5380516300        1.6150991366
 C        -8.2767538801        7.8954144671        2.9464289025
 C        -6.8898875323        7.1025954601        2.5754139609
 O        -6.1934979091        6.6127854467        3.4234144471
 C        -6.4007222942        7.1183232482        1.0543514201
 C        -5.4460984780        5.9754131555        0.7615624067
 C        -6.0080451692        4.6013117109        1.1212180500
 O        -7.2319968570        4.4770662158        1.1857795628
 C        -5.1210426763        3.3407763014        1.2121232855
 C        -5.2784135529        2.6818568909       -0.2799100316
 O        -6.3053874292        2.2149963729       -0.6798555236
 C        -4.0181904746        2.6748389853       -1.1564005670
 C        -4.4686507319        2.4000309328       -2.6191690931
 C        -5.3050903221        3.6379704520       -3.0594065400
 O        -5.4894425062        4.5368867464       -2.2703953115
 C        -6.0044180814        3.6320522379       -4.4128140461
 C        -7.4717371005        3.3143574887       -4.1272164729
 O        -7.8002247119        2.1414878408       -4.0405191541
 C        -8.3677864812        4.4782603435       -3.7842761081
 C        -9.7695171359        4.0349431822       -3.5098993091
 C        -9.7014992798        3.1425598411       -2.2087514971
 O        -9.2082094534        3.6479477902       -1.2200408464
 C       -10.3680304261        1.7280592477       -2.1669874901
 C        -9.2089827245        0.7498485791       -1.7188880412
 O        -8.8620705538        0.6811663037       -0.5477307308
 C        -8.6446946859       -0.3439766163       -2.6190441732
 C       -11.4553834827        1.7262013029       -1.0567597419
 C       -11.0358325519        1.3548267869       -3.5026397315
 C        -5.8442695692        5.0519676428       -5.0147717871
 C        -5.5430505639        2.5997185749       -5.4712657116
 C        -3.6609051861        3.6418898908        1.6286043701
 C        -5.6858001704        2.2843406234        2.2058991912
 C        -8.2766712915        9.1392917799        2.0371954765
 C        -8.4574576946        8.1788002950        4.4503151898
 C       -12.2933901643        4.0965360450        4.3126066073
 C       -11.4949871507        1.6129872397        4.1188015428
 C       -16.9683729856        1.4940783723       -0.8043097094
 C       -15.9105831768        2.7042391532       -2.8065873543
 H       -19.3570312758        4.6413782831       -2.4144359430
 H       -18.6124455210        3.3208511014       -3.1778781634
 H       -17.7726916231        4.9537282977       -3.1612222536
 H       -15.7112403140        2.1455450394        1.2878925899
 H       -16.2806806524        3.7550641925        1.4402797179
 H       -14.4733052722        3.8950583003        2.9028169500
 H       -13.7440233220        4.4878803500        1.5610314242
 H       -11.3794831965        5.2286146684        1.6122459255
 H        -9.9221081861        4.6618761913        0.9313854728
 H        -8.6792711940        5.1800429843        3.1028181859
 H       -10.1845923409        5.7252345008        4.0101677602
 H        -5.8185103021        8.0263009888        0.9737894779
 H        -7.1346310652        7.0701667294        0.2571853223
 H        -4.5524039632        6.1791972932        1.3658149339
 H        -5.1557306389        5.9681319688       -0.2722572299
 H        -3.2491991825        1.9821427277       -0.7512178280
 H        -3.5659066481        3.6888340875       -1.1369759708
 H        -5.0063332145        1.4298083569       -2.7157054510
 H        -3.6244676348        2.2973552294       -3.2905653611
 H        -8.3503638175        5.1622028923       -4.6181560611
 H        -7.9556474387        4.9634519918       -2.8984141916
 H       -10.1681355614        3.6346597698       -4.4428346210
 H       -10.2941893067        4.9538821679       -3.3146184696
 H        -8.6743245147       -0.1388103588       -3.7081379099
 H        -9.3798973338       -1.0935238210       -2.5108386891
 H        -7.6318718831       -0.6241014063       -2.4398506643
 H       -11.1800242051        2.2885980175       -0.1572466446
 H       -11.7570102708        0.7550787461       -0.8590410689
 H       -12.2836447005        2.2198725885       -1.4254327363
 H       -11.5461849900        0.3743469045       -3.4425190654
 H       -10.4939781166        1.3405316308       -4.4229617291
 H       -11.7858807713        2.1743926637       -3.6893011627
 H        -4.7955868522        5.0931142799       -5.2659819723
 H        -6.0704438683        5.7500531687       -4.2829902952
 H        -6.4001435655        5.2533679383       -5.9044435651
 H        -6.2341656016        2.6120247399       -6.2647834516
 H        -5.6201179642        1.6368801326       -4.9744981364
 H        -4.5464333608        2.7601736009       -5.8941348819
 H        -3.4024915649        4.6325296436        1.2223220959
 H        -3.0640121304        2.8670581648        1.2781018820
 H        -3.5290929993        3.7317154613        2.6917942826
 H        -5.1587106600        1.3330055436        2.0172632552
 H        -6.7209903991        1.9779120191        2.0598705055
 H        -5.6230424143        2.5064370513        3.2444826057
 H        -9.1688351526        9.7323437517        2.2071578348
 H        -8.1774550528        8.6987418923        0.9717070032
 H        -7.3497069087        9.7631865577        2.1482729440
 H        -9.5303281020        8.4197911770        4.6125987990
 H        -7.9055516632        9.0861770464        4.6214410684
 H        -8.0823771475        7.3776347541        5.0296688884
 H       -11.4617708147        4.2209874555        4.9624650844
 H       -13.2151127233        3.8370687767        4.8255103629
 H       -12.5176197904        4.9647956160        3.6977496948
 H       -11.2334169509        0.8333094751        3.4234876080
 H       -12.3073062076        1.2954558249        4.7430785262
 H       -10.6415399742        1.6688179517        4.7470297367
 H       -16.2044493164        0.7646955441       -0.6987969997
 H       -17.8206104460        1.1369280580       -1.3748674464
 H       -17.2774373560        1.5150156063        0.2258556486
 H       -14.8337784611        2.7537891321       -2.8547816589
 H       -16.3627329999        3.5075165369       -3.3747576886
 H       -16.2568241252        1.7474049115       -3.1228941336
 Na       -8.2575159749        2.7284050443        0.5587415322
