117

 C       -17.8911922153        4.3297965711       -2.4381220828
 C       -17.4636623334        3.5935809469       -1.1298927804
 O       -18.1171011050        3.7677796663       -0.1187694392
 C       -16.1216047133        2.6810074357       -1.1017103011
 C       -15.1783855173        3.3708941690       -0.0556813424
 O       -14.3065498333        4.1397389379       -0.4592705248
 C       -15.6181334189        3.2109799332        1.4670700244
 C       -14.6982780459        3.7956552068        2.5947432502
 C       -13.3837720912        2.9951276348        2.4039496586
 O       -13.1723308836        2.2220132121        1.4992023591
 C       -12.2220034310        3.3134061016        3.5097230752
 C       -10.9978713578        3.6278241092        2.5580084046
 O       -10.2299610326        2.7065971721        2.3031302104
 C       -10.7376459892        5.0124968377        1.9945028178
 C        -9.7313265528        5.8006040447        2.8347877707
 C        -9.2954467485        7.0626852497        1.9818078067
 O        -9.5900640568        7.1854576751        0.8371441712
 C        -8.2011202630        7.9738803379        2.6752318451
 C        -6.7807949420        7.2410071810        2.4569819766
 O        -6.1007281418        6.8568868339        3.3439543477
 C        -6.4084317600        7.1719256039        1.0051617005
 C        -5.3313012283        6.0756683554        0.6969286147
 C        -5.9392183356        4.7204469168        1.0994722680
 O        -7.0984120589        4.4798254105        1.0049959529
 C        -5.0148366382        3.4916799812        1.2833098663
 C        -5.3327445724        2.6439742852        0.0093109629
 O        -6.4724085478        2.3338508242       -0.3555611585
 C        -4.1672098311        2.3209601088       -1.0026124687
 C        -4.7058221918        2.0363039761       -2.3721290777
 C        -5.1656385359        3.3486251437       -3.1205216941
 O        -4.9500679531        4.4215070298       -2.6192821712
 C        -5.6989890830        3.2286246810       -4.5869110107
 C        -7.3677889568        3.0466878228       -4.2340444352
 O        -7.8998820558        1.9715766742       -4.4916342547
 C        -8.1471380013        4.2698457523       -3.7616920226
 C        -9.6298601565        3.8773341184       -3.6108920010
 C        -9.9054899365        3.1700026928       -2.2688260098
 O        -9.5583208095        3.6103449019       -1.1975318811
 C       -10.4738690006        1.6692620051       -2.2896599203
 C        -9.4582667254        0.6268393928       -1.7318313124
 O        -8.9032259600        0.6784936100       -0.6511866459
 C        -9.1749715164       -0.6833629351       -2.5736665715
 C       -11.6689117290        1.6516383070       -1.3047040434
 C       -10.9186117462        1.2862082336       -3.7131091533
 C        -5.3867869676        4.5087165075       -5.3465010510
 C        -5.1423096106        1.9521049736       -5.2537109228
 C        -3.4573733618        3.8687963522        1.3763537974
 C        -5.3949802247        2.6146270270        2.4913492367
 C        -8.1941220227        9.3711371206        2.0234120096
 C        -8.4213735257        8.0977015051        4.2798659510
 C       -12.4910166720        4.6186221450        4.3660053608
 C       -11.9783171824        2.1803021869        4.4910785718
 C       -16.5206808857        1.2167687199       -0.6842291340
 C       -15.3958422868        2.6266413441       -2.5020915011
 H       -18.7037519422        4.9888690657       -2.2390496772
 H       -18.0867484895        3.5043008675       -3.2189980250
 H       -17.0937236140        4.9224756727       -2.8486635948
 H       -15.7476765098        2.1730278225        1.6948925622
 H       -16.5593135774        3.6675478147        1.3971009427
 H       -15.1057292474        3.6761613889        3.5833815316
 H       -14.5541488302        4.8299299758        2.3574679308
 H       -11.6850961748        5.5872543940        1.8540252924
 H       -10.3412870184        4.9913184702        0.9613597969
 H        -8.7191519615        5.3040211620        3.1210562822
 H       -10.1041371313        6.1604304791        3.7431898392
 H        -6.0496681456        8.2060178226        0.7895415215
 H        -7.2119450647        6.9998879605        0.2918846262
 H        -4.3973574236        6.3146829841        1.2407918661
 H        -5.1457541788        6.0602897762       -0.4270168965
 H        -3.5980018914        1.4167861913       -0.6820949676
 H        -3.5083967562        3.1902858426       -1.1230264556
 H        -5.5317155317        1.3616804686       -2.2221453880
 H        -3.9013952647        1.3926901158       -2.7868497171
 H        -7.9513570531        5.0803942216       -4.4937174973
 H        -7.6569438305        4.5512755569       -2.8775449184
 H        -9.7676639852        3.2095156596       -4.4201166394
 H       -10.2514016177        4.7307985272       -3.7344133306
 H        -8.4326430864       -0.4801228345       -3.3540010339
 H       -10.0840292249       -1.1187893289       -3.0348034999
 H        -8.7239562913       -1.4603355449       -2.0064730838
 H       -11.3207693826        1.6568510596       -0.2457260025
 H       -12.3358722799        0.8253593033       -1.3036489367
 H       -12.1818824856        2.5483562393       -1.5186714034
 H       -11.5175077567        0.3670896683       -3.7895045584
 H       -10.1459130641        1.1829704570       -4.5007569561
 H       -11.6724980890        1.9861763000       -4.0411302302
 H        -4.3521806085        4.6209248448       -5.4171869896
 H        -5.7050543622        5.3760660429       -4.7878221517
 H        -5.8221814877        4.4982370755       -6.2881707779
 H        -5.1730683965        2.0394151366       -6.3737752196
 H        -5.6881988470        1.1388195580       -4.9467223979
 H        -4.0821193001        1.7858783447       -5.0178280629
 H        -3.1525079207        4.6721841169        0.6758895464
 H        -2.8980775249        3.0477505833        1.0763946885
 H        -3.3155744338        4.0863098466        2.4125576420
 H        -4.7116660539        1.7873189518        2.4288077397
 H        -6.3986013319        2.1545779858        2.5362597897
 H        -5.1370817676        2.9670530771        3.4834076991
 H        -9.2207676498        9.8176740005        2.0278776425
 H        -7.9020478894        9.4196879692        0.9674104897
 H        -7.3800817592        9.9129824615        2.5445950880
 H        -9.4600308978        8.1537852727        4.4340526720
 H        -7.8409387822        8.8803491810        4.7710882148
 H        -8.0990765410        7.1153987185        4.7111178632
 H       -11.6272037393        4.7314414588        5.0165998412
 H       -13.2698580494        4.2791530913        4.9611484293
 H       -12.6304261366        5.4733484037        3.7425905411
 H       -11.6468494301        1.2747904483        4.0204732489
 H       -12.8290612897        1.8831315885        5.0079682066
 H       -11.2330032446        2.5577640741        5.2098610362
 H       -15.7311415360        0.4468770315       -0.6096027964
 H       -17.1433571355        0.7201444161       -1.4110562279
 H       -17.1223061142        1.1832546299        0.1807493248
 H       -16.1135064286        2.1792816826       -3.1790106055
 H       -14.5060922480        2.0439004582       -2.4264511281
 H       -15.2441711590        3.6063778490       -2.9031834270
 Na       -8.5766605036        2.7944624204        0.7342591294
