117

 C       -17.7386990396        4.4148296286       -2.3311077062
 C       -17.4489372769        3.4674883120       -1.2021770800
 O       -18.3211603701        3.2937445161       -0.3642818097
 C       -16.0820000500        2.7039133631       -0.9730617922
 C       -15.3315733799        3.4233689743        0.1935060960
 O       -14.2407340379        3.9549778126        0.0005912821
 C       -15.8185444753        3.3223916468        1.6142446891
 C       -14.7983947500        3.8884382475        2.6644619089
 C       -13.5106492943        3.1364579398        2.5233235938
 O       -13.3317558006        2.2305317640        1.7348618522
 C       -12.3601649384        3.6652883109        3.4679875609
 C       -11.0859345978        3.8860418940        2.6139111332
 O       -10.2930708040        2.9645896520        2.4450438236
 C       -10.8163107364        5.2246371201        1.8663239369
 C        -9.8737761320        6.0714634826        2.7411065126
 C        -9.1104430897        7.0658962805        1.8208861925
 O        -9.1736235907        7.0088206888        0.6301064039
 C        -8.1578241154        8.0646042737        2.5951699182
 C        -6.7158437824        7.3729998808        2.4535117275
 O        -6.1754004554        6.7971809159        3.3267358787
 C        -6.3180383912        7.3257861695        1.0192087206
 C        -5.3190264334        6.2013812620        0.7529210006
 C        -5.9138922305        4.8224388415        1.0586774287
 O        -7.1023723755        4.6706954821        1.2105620916
 C        -4.9619248291        3.5804695586        1.2128555982
 C        -5.1939178027        2.5196487507        0.0696924547
 O        -6.2523969844        1.8954001837        0.0389668947
 C        -4.0649760926        2.1123978163       -0.9192561060
 C        -4.6499482534        1.7833682518       -2.3709069845
 C        -4.9422762775        3.0753592082       -3.1840254765
 O        -4.9422118539        4.1900830581       -2.6816570203
 C        -5.6603253802        2.9652426680       -4.6459406205
 C        -7.1915038116        2.7861150720       -4.3228760545
 O        -7.7483228300        1.7300778061       -4.5144280970
 C        -8.0011874103        4.0209494287       -3.9559677753
 C        -9.4487229626        3.7493198352       -3.6976592777
 C        -9.7354278028        3.0564640748       -2.4369838881
 O        -9.3458574060        3.5953467981       -1.4134829911
 C       -10.5743823939        1.7607183546       -2.3949928372
 C        -9.4971973313        0.6857358938       -1.8412956925
 O        -8.9693299268        0.8673151619       -0.7738918583
 C        -9.4205986116       -0.6501049250       -2.5463951889
 C       -11.6414964581        1.8639838015       -1.1943560489
 C       -11.1002283886        1.2690808857       -3.7192354026
 C        -5.4684112160        4.3011731875       -5.3870002000
 C        -5.2186761237        1.7784793055       -5.5473403780
 C        -3.4549499691        3.8892003218        1.3704644268
 C        -5.5285300092        2.8446458116        2.5464984063
 C        -8.3778576808        9.4325900555        1.8597726150
 C        -8.3944519871        8.1701358826        4.1494945158
 C       -12.7703357410        4.8754754196        4.3539549885
 C       -12.1670709685        2.4415096582        4.4063998237
 C       -16.4354558217        1.2357376954       -0.6482407568
 C       -15.1732129021        2.8270233720       -2.2150685125
 H       -18.6914926102        4.8488067470       -2.0740655917
 H       -17.7111869154        3.7963954337       -3.2455647847
 H       -17.0690805405        5.2130721139       -2.4911259419
 H       -16.1984214179        2.2866721242        1.8601491551
 H       -16.6966452529        4.0348374820        1.6333149321
 H       -15.2143189530        3.8392773187        3.6719143823
 H       -14.5934726325        4.9069898802        2.3442574381
 H       -11.7651113850        5.8214666751        1.7256755493
 H       -10.2589381669        4.9350196334        0.9316369227
 H        -8.9771199802        5.5895088491        3.2937459895
 H       -10.3675956136        6.5845450637        3.5417812363
 H        -5.9207534144        8.2887839621        0.8080065974
 H        -7.2338994975        7.3160743114        0.4003983601
 H        -4.4973139038        6.4653255445        1.3819274665
 H        -4.9688463849        6.1863070942       -0.2459719703
 H        -3.7996375549        1.1973565589       -0.3911913736
 H        -3.1883134577        2.7724098048       -0.8737483400
 H        -5.5372140844        1.2096776385       -2.0712029544
 H        -3.9753697774        1.0727331602       -2.8544020038
 H        -7.8186906026        4.8247238221       -4.6489171032
 H        -7.5716851712        4.3848398176       -2.9766569959
 H        -9.8490146216        3.1623001475       -4.5431281068
 H        -9.9322153021        4.7573333841       -3.6654006500
 H        -9.1984511055       -0.6259688757       -3.5879059562
 H       -10.2692685684       -1.3366250567       -2.3140768831
 H        -8.6078432027       -1.1735789081       -2.0520250084
 H       -11.3159996574        2.4309301186       -0.3394177320
 H       -11.8268189384        0.8778920796       -0.7455012375
 H       -12.5797621337        2.2085717253       -1.5656046834
 H       -11.6536793034        0.3509847238       -3.6141970583
 H       -10.2502722723        1.0330835097       -4.4088103805
 H       -11.7713825154        1.9291263182       -4.2140638170
 H        -4.4729544859        4.3500920999       -5.8704693869
 H        -5.4796839500        5.1654403482       -4.6077414403
 H        -6.2522183527        4.5308663673       -6.1422767757
 H        -6.0178815309        1.5692394543       -6.3080640347
 H        -5.2572673625        0.8817862263       -4.9739841534
 H        -4.2139888280        1.8443360401       -5.9590068024
 H        -3.0255428007        4.2709334733        0.4410514013
 H        -2.8520742697        2.9717439003        1.5302192111
 H        -3.4819394003        4.5750348471        2.2094254436
 H        -5.0060192233        1.9678728922        2.8263719716
 H        -6.5868532811        2.5975577739        2.4634340676
 H        -5.4312013630        3.4507309799        3.4591141658
 H        -9.1849589396       10.0131608341        2.3982084448
 H        -8.6872104074        9.3896005841        0.8551996022
 H        -7.5088780475       10.0958841482        2.0105381855
 H        -9.3657854982        8.5814728671        4.3291960834
 H        -7.6268126828        8.8024546959        4.6159319180
 H        -8.3324158228        7.1609779267        4.6087140462
 H       -11.8721688103        4.9831133054        4.9963797666
 H       -13.6223133082        4.5895433367        4.9650042056
 H       -12.8275977231        5.6813863897        3.6413925572
 H       -12.1672900432        1.4974329347        3.8582785550
 H       -13.0398806881        2.3331495500        5.0669822953
 H       -11.2615186186        2.5329186043        5.0367057220
 H       -15.6800117463        0.6194750347       -0.1625302790
 H       -16.4892892364        0.6321107262       -1.5363828069
 H       -17.3915451499        1.0972935064       -0.1462141648
 H       -15.1745120159        3.8282601877       -2.7303296719
 H       -15.5267316898        2.1037440648       -2.9998666345
 H       -14.1571662035        2.4928840161       -1.8953160742
 Na       -8.6252748794        2.6931091664        0.6473701454
