117

 C       -12.8177376494        9.2205448464       -4.1152263661
 C       -11.8944436909        8.2901052410       -4.8815065238
 O       -11.7728896999        7.1436876137       -4.6029120780
 C       -10.9302649759        8.9290400129       -5.9320161000
 C        -9.5951877647        9.4588267568       -5.1610099009
 O        -9.4394181120       10.6822171541       -5.2238286071
 C        -8.6988842768        8.5313028074       -4.3597074618
 C        -8.3333045510        9.3599226796       -3.0575437210
 C        -7.5230571873        8.6851406410       -2.0198544596
 O        -6.6397710547        7.8826622996       -2.2404143883
 C        -7.8067018992        8.7944685233       -0.3179271224
 C        -9.0778675395        7.9417303340       -0.2713663531
 O       -10.1789855746        8.3906785194       -0.0998482002
 C        -8.8409771828        6.4704699197       -0.5233892288
 C        -9.7971947678        5.8642478197       -1.5927851381
 C        -9.7405863108        4.3602684678       -1.5271302453
 O        -8.7177241561        3.8421385740       -1.0330105265
 C       -10.8262526820        3.3838328947       -2.1423184708
 C       -11.4793465133        2.9059400581       -0.9322400886
 O       -11.0956476091        1.8885715878       -0.3835131613
 C       -12.5261722050        3.7643249913       -0.2925288787
 C       -12.5946323213        3.5926476605        1.1846613436
 C       -11.3206591677        4.0402047018        1.8749907816
 O       -10.3018097294        4.4958848941        1.3777173325
 C       -11.2491821997        3.8326279205        3.3924051218
 C       -10.9169045749        2.3163571019        3.5309606854
 O        -9.9210237896        1.8629943798        3.0143158036
 C       -11.8480679052        1.4666728028        4.3732913025
 C       -11.0882956383        0.3572316546        4.9721094418
 C       -11.2993679652       -0.8847853313        4.0800636608
 O       -11.8814541214       -0.7366399058        2.9775191602
 C       -10.8508464335       -2.3635116165        4.3660277261
 C        -9.6790586842       -2.4214853829        3.3381204658
 O        -8.5693321759       -2.0781739783        3.6654918953
 C        -9.9230809183       -2.7466324360        1.8250813109
 C        -8.6000020263       -2.5149568628        1.0676504904
 C        -8.3484800659       -1.0623713156        0.6760003908
 O        -9.2982198881       -0.3369314606        0.7192955814
 C        -6.9697753855       -0.5967213143        0.0278877332
 C        -6.4713330074        0.5020523228        1.0426234462
 O        -6.8367805558        1.6585756850        0.9513320749
 C        -5.5031032974        0.2786176234        2.1840290392
 C        -6.0209235983       -1.8612998426       -0.0328539496
 C        -7.2327998664       -0.0648082944       -1.4165370504
 C       -10.4735731719       -2.6903535153        5.8978442647
 C       -12.0494644965       -3.2790447498        4.0778050668
 C       -10.0896539580        4.5570855651        4.1319142222
 C       -12.6481006445        4.2105967928        4.0283997425
 C       -11.8222319377        4.1565115521       -3.0715905723
 C       -10.2212753809        2.1700838050       -2.9368033587
 C        -6.7116604487        8.1009299165        0.5619266267
 C        -7.9720036059       10.2439682897        0.1877079162
 C       -10.4652842755        7.7745765556       -6.9619873407
 C       -11.5462329567       10.1355193625       -6.7531277750
 H       -12.3181672225       10.0916966614       -3.7058156056
 H       -13.3316454276        8.6604993664       -3.3276781310
 H       -13.7164857002        9.6070476800       -4.7880198166
 H        -7.7033336003        8.2590658439       -4.8284894108
 H        -9.1293261795        7.5777872580       -4.0353235137
 H        -9.2950764182        9.6396126479       -2.6309146573
 H        -7.8320535724       10.3056431219       -3.2305857021
 H        -8.9861541363        5.9121433373        0.3972103779
 H        -7.7684051156        6.2616311414       -0.7823153513
 H        -9.4154971612        6.1539866755       -2.6645510467
 H       -10.8301171888        6.2853738816       -1.5261282738
 H       -13.5044224295        3.4168709208       -0.6076807268
 H       -12.3861842126        4.7594702098       -0.6758490401
 H       -12.8306153059        2.5367407729        1.3572481255
 H       -13.3979829402        4.3149036291        1.5275030518
 H       -12.6848836853        1.0525726894        3.7250976225
 H       -12.2639774956        2.0404934042        5.2656761394
 H       -11.3953215638        0.0345925198        5.9874506206
 H        -9.9767114697        0.3979146175        5.0888193957
 H       -10.6598663108       -1.9605052824        1.5292636678
 H       -10.4229274330       -3.7115737169        1.7056233359
 H        -8.4761816153       -3.1289441176        0.1900028771
 H        -7.8133700051       -2.9540090850        1.6124208705
 H        -5.9029628582       -0.4984309869        2.9033270612
 H        -5.1829613242        1.1717563738        2.5387985907
 H        -4.6000727792       -0.2451440697        1.7590827872
 H        -6.5505222720       -2.5685118576       -0.7616603711
 H        -5.8089388395       -2.2365013234        0.9125309526
 H        -5.1011482702       -1.5447627178       -0.4614016103
 H        -6.5034205524       -0.3731923744       -2.1212580116
 H        -7.2445534595        1.0159122690       -1.4089091490
 H        -8.1826818698       -0.4230884365       -1.6925799256
 H       -11.2993706449       -2.6848731531        6.5720299910
 H        -9.7962679938       -1.9924959597        6.3239820865
 H        -9.9309455128       -3.6525313384        5.9552860870
 H       -12.7284337477       -2.9729089844        4.8660657210
 H       -11.8222653393       -4.3111113253        4.2637559713
 H       -12.5144530739       -3.1789917651        3.1280190332
 H       -10.2969656984        5.6418882258        4.2522289108
 H        -9.2418650533        4.4535213457        3.4606485009
 H        -9.9720839987        4.1797989752        5.1038485091
 H       -12.7062170718        5.2964411967        4.1669426192
 H       -12.8053873290        3.7362486266        5.0306603979
 H       -13.4044679746        3.7316894228        3.4249899863
 H       -12.5928154055        3.5095321283       -3.4885464314
 H       -11.3726773104        4.5388137404       -4.0326726535
 H       -12.2531988202        4.9777414887       -2.5385817910
 H       -11.0798423796        1.7899734556       -3.4825259296
 H        -9.9007165373        1.4381897458       -2.1631880691
 H        -9.3605271657        2.3528489420       -3.5633983732
 H        -5.7655398839        8.4717204098        0.2189222859
 H        -6.6449289181        7.0224602386        0.4016205842
 H        -6.8444699029        8.3111986821        1.6092521103
 H        -7.1174533890       10.9166790348        0.1965291507
 H        -8.4186683893       10.2247620499        1.2070309204
 H        -8.7537565964       10.8214216021       -0.3528325988
 H       -10.2406215945        6.9055772625       -6.3232075565
 H        -9.6441849699        8.2094375263       -7.5887594620
 H       -11.3430367707        7.5150883282       -7.5388969309
 H       -11.1636818425       11.0850679459       -6.4337837423
 H       -12.6155630400       10.0042343215       -6.6708489872
 H       -11.1747849415       10.0266958164       -7.8217571599
 Na       -9.1293767444        2.1703378671        0.7797824176
