117

 C       -17.7738203146        4.8392086621       -1.5574801841
 C       -17.6304427914        3.3663606171       -1.1033983807
 O       -18.5761146693        2.7033523077       -0.8466251902
 C       -16.0457974516        2.7303650965       -0.9979890143
 C       -15.3939207412        3.5348863907        0.0912797373
 O       -14.8936413324        4.6079499886       -0.1947688194
 C       -15.6345235140        3.2229372890        1.6272253301
 C       -14.7063249980        4.0198388848        2.4910553144
 C       -13.4960380890        3.1259238890        2.8625551107
 O       -13.4450886448        1.9478068112        2.6412056652
 C       -12.2042643242        3.9066488490        3.5376408222
 C       -11.1981731867        4.0746284184        2.3364684102
 O       -10.4269076690        3.1729839955        2.1120633069
 C       -10.9991257178        5.3803876743        1.5671129094
 C        -9.8559812506        6.0448611955        2.3486424583
 C        -9.2619123660        7.2061934129        1.5237767117
 O        -9.5527133510        7.2903695873        0.3619951435
 C        -8.1981529985        8.1894106577        2.1937953048
 C        -6.8339103456        7.3912044392        2.1437072950
 O        -6.3974985506        6.7799009304        3.0635360347
 C        -6.0756539343        7.3819629341        0.8124916646
 C        -5.1435664667        6.1570765260        0.7721214563
 C        -5.8419067145        4.7651755950        1.0250712455
 O        -7.0406031233        4.7636076493        0.7696174308
 C        -5.0239503623        3.4038542815        1.4124061031
 C        -5.4153448119        2.4101429150        0.2991618782
 O        -6.5469106860        2.0041114684        0.0358899173
 C        -4.2312955535        1.9285173848       -0.7072547781
 C        -4.6836209104        1.3816909171       -2.0595119232
 C        -4.9670373013        2.6498922675       -3.0702631653
 O        -4.9467295652        3.7974923283       -2.6482207928
 C        -5.5829410496        2.4309799131       -4.5032231479
 C        -7.1247060080        2.4401124210       -4.2694033889
 O        -7.6663249723        1.3891286123       -3.9852620566
 C        -7.9451506133        3.6817051937       -4.5352564606
 C        -9.3421268429        3.3500602797       -4.0259520962
 C        -9.4407641772        3.0323835750       -2.5857966058
 O        -8.7434032358        3.6022275943       -1.7609833243
 C       -10.5099195160        1.9711020871       -2.0643824525
 C        -9.6256281108        0.7612406036       -1.4814537002
 O        -9.2066094739        0.7745561462       -0.3339825893
 C        -9.4864352812       -0.5208052623       -2.2576139069
 C       -11.2839865275        2.5844434250       -0.8909960605
 C       -11.4484437489        1.4660658065       -3.1687937867
 C        -5.2324183835        3.6251874325       -5.3428690489
 C        -5.0873400925        1.1031024252       -5.1486316595
 C        -3.5170694689        3.5669012253        1.5710270286
 C        -5.6059040401        2.9255507489        2.8035839656
 C        -8.0309624884        9.5292941517        1.4702654541
 C        -8.5227025840        8.6467079117        3.6418181441
 C       -12.5319698243        5.2425925898        4.2203235065
 C       -11.5805101416        2.9152331161        4.5428544554
 C       -16.0323902578        1.2479120697       -0.6156805333
 C       -15.3878383392        2.9313949858       -2.3795577112
 H       -18.3476222080        5.3375949513       -0.7648973015
 H       -18.3951310140        4.9491150427       -2.4754910515
 H       -16.8146607296        5.2986346516       -1.6745137481
 H       -15.6029178935        2.1994665432        1.8337944003
 H       -16.6285037243        3.5436215409        1.8347813555
 H       -15.1325102638        4.5329961891        3.3333914530
 H       -14.3217391737        4.7759195458        1.8368078825
 H       -11.8584140675        6.0271789386        1.5579364612
 H       -10.7901329556        5.1101524108        0.5194491768
 H        -9.0751511143        5.3216726043        2.5397858266
 H       -10.2979456097        6.3915405419        3.2690205721
 H        -5.4541697100        8.2678392742        0.8048224911
 H        -6.7411825257        7.4777311278       -0.1001667590
 H        -4.3911195893        6.3516985335        1.6013061100
 H        -4.5297980439        6.2679958386       -0.1432129929
 H        -3.7996448490        1.0445123205       -0.2325384859
 H        -3.3620360309        2.6180152943       -0.7718786650
 H        -5.5199333512        0.6979293931       -1.8088140944
 H        -3.8707361666        0.7237281744       -2.2507563134
 H        -7.9779868759        3.9211182465       -5.5568172532
 H        -7.6029589979        4.6211586870       -4.0169918759
 H        -9.8003514556        2.6098172265       -4.6296437120
 H        -9.9407284927        4.2236140745       -4.1287862724
 H        -9.2111900872       -0.3902167484       -3.2738875877
 H       -10.5097535483       -0.9560729651       -2.3455227031
 H        -8.9289802084       -1.2276061919       -1.6734299448
 H       -10.5826999526        3.0119773251       -0.0971807541
 H       -11.9221390671        1.8216342509       -0.4767954285
 H       -11.8322696638        3.4409176923       -1.1352784074
 H       -12.2072255933        0.7888869432       -2.7644549181
 H       -10.8182370076        0.9336732560       -3.9816460974
 H       -11.8637926428        2.3528677047       -3.6510887801
 H        -4.3316732889        3.4945912893       -5.8708042856
 H        -5.2280003419        4.6189578681       -4.8301171028
 H        -5.9365737631        3.6957480356       -6.1352212646
 H        -5.4514575414        1.0359474697       -6.1993545942
 H        -5.2501537613        0.2384698180       -4.5846603264
 H        -4.0319739663        1.1542913340       -5.2969109550
 H        -3.0060791083        4.0644690555        0.7263659701
 H        -3.1614250771        2.5963310973        1.7604530889
 H        -3.2382245951        4.0666141898        2.4298479680
 H        -5.2722873925        1.9961026415        3.1810388953
 H        -6.6889675324        2.8869162908        2.7573533185
 H        -5.4721433846        3.7128803997        3.5455660456
 H        -8.6273064300       10.3005640676        2.0969295494
 H        -8.4729690887        9.4673917548        0.4783677957
 H        -6.9964304033       10.0052687580        1.4086937607
 H        -9.4418291446        9.1783058376        3.7170969617
 H        -7.7396668794        9.3166260394        3.9897234513
 H        -8.5240966183        7.8316787175        4.3748709943
 H       -11.7230358900        5.4226409795        4.9239811036
 H       -13.5399921064        5.2223367411        4.6310376841
 H       -12.6104308286        5.9886195246        3.4459818254
 H       -11.4015239353        1.9612021086        4.1192083426
 H       -12.1034296928        2.8851292068        5.4870235365
 H       -10.5929639069        3.2530576426        4.7666671833
 H       -15.1977129041        0.9036615053       -0.0363742096
 H       -16.2729211703        0.6718384083       -1.4862296774
 H       -16.8375582515        0.9907460899        0.1108829686
 H       -14.7855374155        3.8398947235       -2.4223043226
 H       -16.1241043313        3.0555833094       -3.1944592544
 H       -14.7251619611        2.1267114820       -2.7433877512
 Na       -8.6324987820        2.9638016308        0.4994299853
