117

 C       -17.7577301093        4.8297496497       -1.4325208623
 C       -17.6165088111        3.3163119193       -1.1242972730
 O       -18.5905697430        2.6325275909       -0.9174032217
 C       -16.1488055328        2.7261402450       -1.0284586634
 C       -15.4177801949        3.6419329849        0.0543887416
 O       -14.8326315303        4.6699268135       -0.1757270596
 C       -15.6216058899        3.2579581527        1.5281760366
 C       -14.6460128549        4.0078340836        2.4590240596
 C       -13.4053452154        3.2207097330        2.9347441007
 O       -13.3540486973        2.0449603052        2.7058381021
 C       -12.1490852525        3.9740646936        3.5252248172
 C       -11.0835987391        4.0898078598        2.3358911848
 O       -10.3258828829        3.1253793725        2.1066139110
 C       -10.9097840297        5.4104483637        1.6621635931
 C        -9.7199041077        6.1054113054        2.3232512159
 C        -9.2768740286        7.3397118489        1.5005996721
 O        -9.4933006679        7.4531600449        0.2797307787
 C        -8.2348211933        8.3152225528        2.1577241207
 C        -6.9376343433        7.3913468929        2.0446431264
 O        -6.5837621197        6.7173107063        3.0440474028
 C        -6.0065695329        7.2803388199        0.7365228104
 C        -5.0537314965        6.0842831115        0.8151253633
 C        -5.8832132294        4.7879329289        1.0446037006
 O        -7.0705042124        4.8151509279        0.9384604507
 C        -5.1846074555        3.4693965405        1.4113279930
 C        -5.4366963440        2.3550940393        0.2259173154
 O        -6.5435892805        1.8608720826        0.0820310646
 C        -4.2230553941        1.9578405182       -0.6077945257
 C        -4.5743742896        1.4025865241       -2.0453299638
 C        -4.9380528217        2.5443089792       -2.9347725212
 O        -4.8439720034        3.6528721151       -2.5646259150
 C        -5.5371690468        2.3519734008       -4.5098576462
 C        -7.1268900674        2.3021139162       -4.3258528461
 O        -7.6927479079        1.2800458306       -3.9274554642
 C        -7.9220025938        3.5489478666       -4.6420191856
 C        -9.3944449895        3.4051301003       -4.0916693579
 C        -9.4627268539        3.0221298353       -2.5903479378
 O        -8.8082070020        3.5342148859       -1.7040584436
 C       -10.5425500584        1.9175711482       -2.1019608537
 C        -9.7756853282        0.7900197733       -1.4020657826
 O        -9.3238931720        0.9626825215       -0.2532334964
 C        -9.6129154352       -0.5671180743       -2.1630636295
 C       -11.3540822952        2.6529611273       -1.0178938443
 C       -11.4412045841        1.3999111572       -3.2015895330
 C        -5.0655150139        3.5939408005       -5.3285216937
 C        -5.2057138605        1.0762723715       -5.2383431846
 C        -3.6550738467        3.5727208995        1.5494135922
 C        -5.6843214862        2.9720746816        2.7767470257
 C        -8.0936581137        9.5567341460        1.2836585996
 C        -8.5841115968        8.5629143035        3.6212998128
 C       -12.5162745467        5.2424786198        4.2949106950
 C       -11.4625227571        2.9985444282        4.5694690219
 C       -16.1147244188        1.2119322999       -0.6555122658
 C       -15.4826137414        2.9673926851       -2.4047030960
 H       -18.4127899073        5.2461418344       -0.7069918598
 H       -18.3911152078        4.8765276002       -2.3934635917
 H       -16.8205711330        5.3747539875       -1.5480037454
 H       -15.3511876655        2.1839788804        1.5657565812
 H       -16.6197030826        3.3456634370        1.9284121819
 H       -15.1619236578        4.2315349239        3.4282103233
 H       -14.3699139887        4.9917083365        2.0466794799
 H       -11.7894346767        5.9972731729        1.6211487813
 H       -10.6492661537        5.2668910425        0.6634504775
 H        -8.8446645520        5.4023608793        2.1846688106
 H        -9.8917198709        6.3487749853        3.2862147418
 H        -5.4688560483        8.2373948004        0.5459893559
 H        -6.7079485162        7.1168525570       -0.1304352754
 H        -4.2649985680        6.2770620131        1.5762668769
 H        -4.4667055945        6.0278523240       -0.1229221560
 H        -3.6021560628        1.2978850168       -0.0034612093
 H        -3.5966474432        2.8319925633       -0.7652474637
 H        -5.2541064672        0.5491134740       -1.9571255984
 H        -3.5852918365        0.9736255254       -2.3778094931
 H        -7.9150564914        3.7832934168       -5.7338059066
 H        -7.4600045615        4.4206304958       -4.1386230393
 H        -9.8590536380        2.5402667525       -4.5891521271
 H       -10.0468789353        4.2572670191       -4.3312352183
 H        -9.3868422181       -0.2748525938       -3.2085322812
 H       -10.5991853343       -1.0627288339       -2.3213336578
 H        -8.9356884465       -1.2597070849       -1.7308263073
 H       -10.8076717484        3.3592183087       -0.4250062920
 H       -11.8769343419        1.8855857505       -0.3858562412
 H       -12.1020996641        3.3468925976       -1.5081511859
 H       -12.2509630908        0.7939551613       -2.7281481091
 H       -10.9118656614        0.7972650633       -3.9497734661
 H       -11.8741917726        2.2975072031       -3.6637379840
 H        -4.0896049162        3.5539053412       -5.7367594444
 H        -5.1589084574        4.4955686954       -4.7815667135
 H        -5.6962144110        3.6653723454       -6.1726328038
 H        -5.6005855100        1.0980209894       -6.2639194831
 H        -5.4701694620        0.2419601429       -4.6728127022
 H        -4.1159768378        0.9957032568       -5.4329657735
 H        -3.1424637695        3.9097661482        0.6042971893
 H        -3.2939218906        2.6697003810        1.9133571760
 H        -3.2459443661        4.2541066053        2.3356405240
 H        -4.9833362769        2.2952693909        3.2386948868
 H        -6.6778904536        2.4961637918        2.8810395840
 H        -5.7696993092        3.8466467408        3.4045270387
 H        -8.7962277463       10.2617400324        1.6960588799
 H        -8.4371429089        9.3333590028        0.2308872806
 H        -7.1280908617       10.0433756522        1.2600339606
 H        -9.5702247824        8.9226800167        3.7920531687
 H        -7.9107150499        9.2004557271        4.1787399380
 H        -8.4974458862        7.5658364432        4.1267783386
 H       -11.5343337061        5.5770949581        4.6919451688
 H       -13.2086391959        5.0191349524        5.0629360220
 H       -12.9865374897        5.9721449707        3.6394316183
 H       -11.2403179833        2.0477412768        4.1257657281
 H       -12.0646900443        2.8912250715        5.4017853313
 H       -10.4839912399        3.3618669194        4.9320721945
 H       -15.1014908375        0.9396671437       -0.2945492250
 H       -16.4449944114        0.6312333759       -1.5052760364
 H       -16.6637701958        0.8969394725        0.1957694615
 H       -15.2075866212        4.0066666965       -2.5160045511
 H       -15.9828749535        2.6413671072       -3.2831490296
 H       -14.5139366257        2.5144976702       -2.4275980763
 Na       -8.4752302536        3.0544582195        0.5621570799
