117

 C       -17.7850402731        4.7941654637       -1.3553991799
 C       -17.6629439257        3.3076776210       -1.1184839687
 O       -18.5747415458        2.5033953836       -0.9610892372
 C       -16.1217673546        2.8504110925       -0.9751317325
 C       -15.4041525052        3.6700297757        0.0876460821
 O       -14.8009923727        4.6572082661       -0.3230747667
 C       -15.5054203841        3.2107515507        1.5578274113
 C       -14.6331808501        4.0489656784        2.5167184714
 C       -13.3038735894        3.2464453953        2.8592930518
 O       -13.2740768470        2.0374892134        2.7639737087
 C       -12.0321571481        3.9686474410        3.5421518318
 C       -10.9742044910        4.1204380566        2.4550205012
 O       -10.3029251943        3.1381909167        2.1091567965
 C       -10.8610627121        5.4356804048        1.7192923883
 C        -9.6223128630        6.2219775041        2.2139816035
 C        -9.1619904657        7.3761053721        1.3604344173
 O        -9.5559993247        7.5560820023        0.2447799157
 C        -8.1522401762        8.3188530902        2.0731370931
 C        -6.8756944903        7.4274348037        2.0554228553
 O        -6.7401535496        6.6733149988        2.9959288548
 C        -6.0723661931        7.2402049467        0.7695364385
 C        -5.1410892629        6.0267324279        0.8851378785
 C        -5.8965486214        4.7861874227        0.9922418114
 O        -7.1202049048        4.8594469197        1.0539709229
 C        -5.1526304341        3.4160228673        1.3813057083
 C        -5.4130653959        2.3248691763        0.1803127082
 O        -6.4858782417        1.7917996981        0.1394957743
 C        -4.2317088349        1.8971728101       -0.6174517863
 C        -4.5590872196        1.3549559203       -2.1157757212
 C        -4.9720364045        2.4881487164       -2.9621149072
 O        -4.7944678466        3.6360522518       -2.5464798740
 C        -5.5628558071        2.2832228110       -4.4523077255
 C        -7.1051151271        2.2476605853       -4.2829969132
 O        -7.6042945347        1.2074808955       -3.8883218353
 C        -7.9499098109        3.4637273647       -4.5545773790
 C        -9.4300652424        3.3795060250       -4.0699021952
 C        -9.4910156805        2.9258042892       -2.5898911572
 O        -8.7636483038        3.5798090039       -1.8644413169
 C       -10.6590123505        1.9610373920       -2.1464262848
 C        -9.8673418017        0.8429651370       -1.3319212003
 O        -9.3707556685        1.0025014619       -0.2473551358
 C        -9.6815326025       -0.5650876944       -1.9539913966
 C       -11.5814338239        2.7234566942       -1.1433122785
 C       -11.5103363475        1.3816473831       -3.3151150101
 C        -4.9794721162        3.4857442503       -5.2352442793
 C        -5.1754374996        0.9828602400       -5.1981608678
 C        -3.6276773707        3.7375960959        1.6232721066
 C        -5.8611084128        2.9694120822        2.6720274024
 C        -8.1042635415        9.6341725887        1.1578688421
 C        -8.5281877697        8.5242362451        3.5427245949
 C       -12.4672762410        5.2720236399        4.2383915750
 C       -11.4158739199        2.9713027179        4.6140200110
 C       -16.2245996739        1.3421054575       -0.7233692754
 C       -15.4976851195        3.0213072178       -2.3873078461
 H       -18.4784825570        5.2646466253       -0.6400462727
 H       -18.2578357830        4.9325310139       -2.2932635642
 H       -16.7539977405        5.2225395388       -1.3730331699
 H       -15.1851659044        2.1140474184        1.6090794413
 H       -16.5706292772        3.2405763413        1.9363019760
 H       -15.1084756997        4.2004399547        3.5238989675
 H       -14.4301136020        5.0890727924        2.0974372251
 H       -11.7560379197        6.0535571085        1.7825761552
 H       -10.7996318448        5.2855194851        0.6479595444
 H        -8.7474275563        5.5923257176        2.3357510712
 H        -9.9220906097        6.7250863561        3.1827278252
 H        -5.4974517737        8.1691645726        0.5084051388
 H        -6.8409044654        7.1028597088        0.0240982060
 H        -4.4492484045        6.2002257185        1.6715164922
 H        -4.5066096641        5.9000981850        0.0027057184
 H        -3.6334182029        1.3087283215        0.0916025255
 H        -3.6382819327        2.7833693936       -0.7209368255
 H        -5.4103164423        0.6855636868       -2.0749312629
 H        -3.6762168909        0.7869526470       -2.5233682414
 H        -8.0083762065        3.6225633141       -5.7009906585
 H        -7.5223412435        4.3653270322       -4.1528167540
 H       -10.0605281774        2.7787500514       -4.7814173246
 H        -9.8809256707        4.4192373488       -4.1057563329
 H        -9.3140693082       -0.4081044719       -2.9857314580
 H       -10.6018395004       -1.0902612734       -2.1445327590
 H        -8.9720772536       -1.1472303370       -1.3066786675
 H       -11.1691011566        3.5484455432       -0.6460239142
 H       -12.0335106576        1.9790499544       -0.4440946019
 H       -12.4071102065        3.2304790277       -1.7528549408
 H       -12.1604245103        0.6974726041       -2.7672558555
 H       -10.9541387915        0.8322498159       -4.0130644522
 H       -12.1500070791        2.1738624065       -3.7400916275
 H        -3.8852046631        3.4302870309       -5.2899557907
 H        -5.1479096549        4.3820284002       -4.7379186897
 H        -5.3161210220        3.5633099739       -6.2668384416
 H        -5.5221255155        1.0812436302       -6.1845491226
 H        -5.5788208026        0.0664903301       -4.6403826809
 H        -4.0982441732        0.8146281933       -5.3528576319
 H        -3.2062029697        4.3486998327        0.8657204094
 H        -2.8910110061        2.9081290506        1.9678620725
 H        -3.5478110964        4.3723008685        2.5712449188
 H        -5.2085215668        2.2697761638        3.2543877436
 H        -6.7957673867        2.4157726797        2.5694367790
 H        -6.1087946733        3.8224499765        3.3045803382
 H        -8.9997838296       10.2032111662        1.3018441304
 H        -8.0349473683        9.4253845724        0.0954461374
 H        -7.2390019528       10.1796389210        1.4466228020
 H        -9.6111207975        8.8145977293        3.5776250556
 H        -7.9959114594        9.3614339292        3.9934759139
 H        -8.3656353460        7.6895040321        4.2002800530
 H       -11.5910561163        5.9008392856        4.3746193538
 H       -12.9101906671        5.0614975425        5.2401627029
 H       -13.2215658206        5.7935319949        3.6198143528
 H       -11.1193567769        2.0111133783        4.1869539691
 H       -12.1859295212        2.8061940873        5.3777450867
 H       -10.5345526875        3.3544574490        5.1232761429
 H       -15.2335360189        0.9175695332       -0.5805676277
 H       -16.7801864005        0.8667252965       -1.5436975165
 H       -16.6561774251        1.1005273188        0.2291481242
 H       -15.5642979664        3.9593022748       -2.8747011471
 H       -15.8217537578        2.2450439390       -3.0351342111
 H       -14.4268349795        2.9527123987       -2.3333853501
 Na       -8.4336180272        3.0707255904        0.6366955019
