117

 C       -17.9738171229        4.8405640926       -1.3119553745
 C       -17.6641951798        3.3440947655       -1.0705749953
 O       -18.5346875803        2.5415337910       -1.0175297364
 C       -16.1350635682        2.7880143168       -1.0324788880
 C       -15.3631702746        3.6402999322        0.0511612168
 O       -14.7264071761        4.6481781796       -0.2698714579
 C       -15.3375932949        3.1992252159        1.4957513173
 C       -14.4659877326        4.0242089566        2.5254457363
 C       -13.2638122745        3.1882336592        2.9519430893
 O       -13.2028324654        2.0002200939        2.7276014219
 C       -12.0349698670        3.9376664390        3.6083252519
 C       -10.9747104044        4.1098558381        2.4345437709
 O       -10.2280046578        3.2201677327        2.1420092579
 C       -10.8340155408        5.4536168405        1.6536288595
 C        -9.6426013168        6.2291346449        2.2650152070
 C        -9.2321032329        7.4453117037        1.2708387820
 O        -9.6457511566        7.5976003450        0.1612386191
 C        -8.1197226030        8.3536534597        1.9958790614
 C        -6.8560264467        7.3686001941        2.0427138018
 O        -6.6999506420        6.6616389410        2.9711450373
 C        -6.0704779313        7.3246514974        0.7444261860
 C        -5.1294562832        6.1196978193        0.8629086838
 C        -5.9327725408        4.8121930587        1.0218348382
 O        -7.1775412447        4.7142528495        1.0066770948
 C        -5.1764887551        3.4605763785        1.3917408491
 C        -5.3127928246        2.2969406337        0.2841145952
 O        -6.4018894018        1.8160165959        0.1310102420
 C        -4.1336656393        1.7600246646       -0.6860664549
 C        -4.6743936853        1.2677870182       -2.0062300906
 C        -4.9543047981        2.4598247513       -2.9840674749
 O        -4.8434379078        3.6578514028       -2.6386788712
 C        -5.5059367151        2.2608566749       -4.3785485952
 C        -7.1124896019        2.1937377841       -4.1931391013
 O        -7.5774609096        1.1520971758       -3.8162549900
 C        -7.9315161700        3.4741673648       -4.5249555279
 C        -9.4022467294        3.3449293460       -4.1919202442
 C        -9.6198974535        3.0405313697       -2.6192085904
 O        -8.7931624206        3.4171320489       -1.8126314854
 C       -10.7413040263        1.9648883613       -2.1375619683
 C        -9.9098345294        0.8642583096       -1.2910393336
 O        -9.4475487372        1.1677935910       -0.2177775063
 C        -9.7774864118       -0.5646659561       -1.8156317705
 C       -11.7159277231        2.7582731822       -1.2437564406
 C       -11.4557029638        1.3670209185       -3.3108463810
 C        -5.0027965523        3.4255803884       -5.2692640132
 C        -5.0426631595        0.8959094288       -4.9796777606
 C        -3.7455287097        3.7652883269        1.6731814007
 C        -5.9123237534        2.8850040243        2.5783780713
 C        -7.9643475195        9.6820491853        1.1801134202
 C        -8.4856215098        8.7765993589        3.3773813800
 C       -12.3600493403        5.3490844270        4.1983151417
 C       -11.4711845930        2.9667822247        4.6448650146
 C       -16.2565635749        1.2648410718       -0.6765845408
 C       -15.5206394204        3.0865763473       -2.3829637635
 H       -18.7935254735        5.1763353989       -0.6340772735
 H       -18.4000443343        4.9398648664       -2.2678959005
 H       -17.0587134841        5.3986131024       -1.2304929688
 H       -15.2437259510        2.0994172944        1.6683179095
 H       -16.3892292606        3.4775119829        1.8357752152
 H       -15.0280737039        4.3742846917        3.4036022388
 H       -14.0457051869        4.9398292151        2.0391592729
 H       -11.7194663569        6.1372691566        1.6216321446
 H       -10.6415214498        5.3930469638        0.5108992142
 H        -8.7515818702        5.6427316360        2.3550690840
 H        -9.9746534099        6.7406974666        3.2679169201
 H        -5.5238993202        8.2544723275        0.7540947697
 H        -6.7724872303        7.3354422923       -0.0647169080
 H        -4.5225989626        6.3472691347        1.7097975332
 H        -4.4368571312        5.9462137072        0.0579431834
 H        -3.7139968118        0.9678674738       -0.0486656079
 H        -3.2976966682        2.4483426138       -0.8511626793
 H        -5.5717742749        0.6758558313       -1.7507109414
 H        -3.9195991714        0.5967341342       -2.3759029306
 H        -7.9183709220        3.7243829499       -5.5818746259
 H        -7.5557247374        4.3585095690       -3.9769175771
 H        -9.8571069112        2.5782862914       -4.8421046807
 H        -9.9247989583        4.2845093726       -4.4976687454
 H        -9.2691914822       -0.5853849821       -2.7653548224
 H       -10.7532709962       -0.9746185609       -2.0901793434
 H        -9.2348601409       -1.1275975412       -1.0117464254
 H       -11.2535389134        3.5956318521       -0.6361357052
 H       -12.2640483799        2.1038701445       -0.6085240378
 H       -12.3557485561        3.2986295045       -1.8700284035
 H       -12.0986148993        0.6369521258       -2.9074012710
 H       -10.7325443482        0.8706471185       -3.9569979466
 H       -12.0694710155        2.1224020830       -3.7524657578
 H        -3.9148627451        3.4924749824       -5.1328501470
 H        -5.2863722865        4.4481601955       -4.8962382125
 H        -5.1763191845        3.3298483064       -6.3516688480
 H        -5.3055676183        0.8995448352       -6.0454221887
 H        -5.5470549760        0.0870298542       -4.3977940475
 H        -3.9856671236        0.6764334004       -4.9895399429
 H        -3.2207685368        4.4651244039        1.0210401343
 H        -3.0725615693        2.8791138656        1.8810282996
 H        -3.7138993158        4.1933009957        2.6647678258
 H        -5.3896248617        2.0279871494        3.0324279224
 H        -6.8343696627        2.4278892786        2.2376007526
 H        -6.2282802957        3.5853037703        3.3841217680
 H        -8.9631858305       10.1184586873        0.9672441400
 H        -7.4764214911        9.6312145380        0.2784209977
 H        -7.3003422616       10.2584510511        1.8200686941
 H        -9.5829323110        8.9826402977        3.4245138502
 H        -8.0268760133        9.7552866482        3.6006115363
 H        -8.2136851181        8.1396353462        4.1964521630
 H       -11.5089544678        6.0333698165        4.2729756077
 H       -12.8030791562        5.2209826607        5.2451857397
 H       -13.1248122628        5.8166640373        3.5288881372
 H       -11.0789060131        2.0545732390        4.1612879594
 H       -12.2952583243        2.6475400133        5.3736680655
 H       -10.6585237827        3.3832709187        5.2264367835
 H       -15.2722210061        0.8404974426       -0.6773351700
 H       -16.9404515913        0.7008649169       -1.3149829343
 H       -16.5113200956        1.1772096640        0.4136603152
 H       -15.8387563501        3.9821224033       -2.8736555895
 H       -15.5597330100        2.2561878613       -3.0840478574
 H       -14.4749799806        3.3985649744       -2.2817279861
 Na       -8.5342477457        3.0073407524        0.5993956701
