117

 C       -18.0638378497        4.8376706336       -1.2480450028
 C       -17.6716459261        3.3579688778       -1.0409432450
 O       -18.5851439379        2.5735782130       -1.0338451273
 C       -16.1083439881        2.8360675976       -0.9665845224
 C       -15.3041124184        3.6427545334        0.0809304955
 O       -14.6489183053        4.6068608519       -0.2642554299
 C       -15.3872055850        3.1543978935        1.5535464218
 C       -14.3866297220        4.0047989935        2.3427457363
 C       -13.1795835702        3.1765141809        2.8521660300
 O       -13.0920506049        1.9744326081        2.7504278353
 C       -12.0091177512        3.9393488789        3.5661562428
 C       -10.9328844446        4.1465288511        2.4657115127
 O       -10.1721337507        3.2249055865        2.2431529371
 C       -10.8842591618        5.4160619951        1.6052322220
 C        -9.7826964763        6.3054267474        2.1972575534
 C        -9.2968448444        7.5177946278        1.3732290101
 O        -9.6853361846        7.6264722833        0.2031920234
 C        -8.1484329779        8.5225894282        1.9906159993
 C        -6.9268692899        7.4989846076        1.9683912408
 O        -6.6541870694        6.7735596678        2.9200433928
 C        -5.9757656210        7.3185440849        0.7428739759
 C        -5.1519694120        6.0051287208        0.7772034032
 C        -5.9664214282        4.7168623634        0.9771458169
 O        -7.1587989100        4.7896003672        0.8038682432
 C        -5.1595542389        3.4245816019        1.3988747906
 C        -5.3039655222        2.3859894708        0.2292389934
 O        -6.3963094210        1.8548958969        0.0265979552
 C        -4.1305445100        1.7377633941       -0.5977605744
 C        -4.7919459927        1.3592776238       -1.9056642571
 C        -4.9987465217        2.5483432925       -2.8999692931
 O        -4.8050060987        3.6292815764       -2.4826309489
 C        -5.5111603085        2.1755870835       -4.3871639971
 C        -7.0439678878        2.1431761633       -4.2290362822
 O        -7.6403250272        1.1976141461       -3.7301231963
 C        -7.8220118359        3.4316743714       -4.4295365627
 C        -9.3295304912        3.2019254670       -4.0978665565
 C        -9.5472705841        2.8960033881       -2.6891046705
 O        -8.8654514377        3.4115886231       -1.8068718098
 C       -10.7497924044        1.9712081595       -2.2296454038
 C       -10.0673566808        0.9161875141       -1.2499961487
 O        -9.5515577788        1.2474657505       -0.1694112431
 C        -9.9433405029       -0.4739754460       -1.7092380842
 C       -11.7433580713        2.7742770061       -1.3052965647
 C       -11.4640932870        1.2526069549       -3.3865255164
 C        -5.0974871391        3.2793407950       -5.3700639701
 C        -4.9339858211        0.7775759508       -4.8051299053
 C        -3.6566524487        3.6926341978        1.7910105331
 C        -5.8718850269        2.7527703291        2.6204297489
 C        -7.7673193247        9.6585184101        1.0398622639
 C        -8.5782646556        9.0025186164        3.3681521562
 C       -12.2975187726        5.3201047358        4.2221348952
 C       -11.4602854926        3.0406811455        4.6844704261
 C       -16.1762354203        1.3580612275       -0.6641592820
 C       -15.5596687696        3.0938248389       -2.4058675097
 H       -18.8926675752        4.9610324052       -0.6044178033
 H       -18.5152891061        5.0494667633       -2.2584755166
 H       -17.2732216162        5.4806149267       -1.0072798455
 H       -15.0428084119        2.1313567602        1.6287474197
 H       -16.3745076941        3.1611451280        1.9830969015
 H       -14.7561544971        4.5477808914        3.1945633314
 H       -13.9655085733        4.7542334517        1.7057402757
 H       -11.8676308661        5.9566079583        1.5058457698
 H       -10.6058619376        5.3164154095        0.5031773981
 H        -8.8208874646        5.7062831158        2.0985277704
 H        -9.9794306519        6.6328532230        3.1842283279
 H        -5.2991298377        8.1324277797        0.7718135499
 H        -6.5960136185        7.3250461756       -0.1703727334
 H        -4.3363326479        6.1673056556        1.5164241735
 H        -4.6165297574        5.8926830019       -0.1672259521
 H        -3.8819124318        0.8627002104        0.0138131487
 H        -3.1743970027        2.3082059281       -0.7303802875
 H        -5.6940735154        0.8030527800       -1.5901722220
 H        -4.1071892239        0.6455236890       -2.3042873102
 H        -7.8170589870        3.8471068967       -5.3745305181
 H        -7.4566264367        4.1893245422       -3.6924640160
 H        -9.7274934232        2.4577837164       -4.7524161540
 H        -9.9399680823        4.0592709222       -4.2939815629
 H        -9.2559480213       -0.5542586732       -2.5449828744
 H       -10.9012124639       -0.8671611484       -2.1238170312
 H        -9.5578216162       -0.9564947707       -0.8624839129
 H       -11.2667592947        3.2270652393       -0.4122632409
 H       -12.4184156942        2.0435595563       -0.9637159772
 H       -12.2168619183        3.5797588248       -1.7786553579
 H       -12.2781032662        0.6551163141       -3.0026143206
 H       -10.7028496183        0.6219307841       -3.8831798094
 H       -11.9102725309        2.0130472549       -3.9691565466
 H        -4.0231443799        3.5141344971       -5.2828386284
 H        -5.5040562881        4.2951288481       -5.0321587998
 H        -5.3286844102        3.0865588859       -6.4375575984
 H        -4.9935181515        0.5385283069       -5.9142137598
 H        -5.3748642054        0.0520224903       -4.2248911220
 H        -3.8583126944        0.7547773284       -4.6162217254
 H        -2.9431375654        4.1385390435        1.0371690203
 H        -3.2484766726        2.8068736351        2.0314793533
 H        -3.5312356267        4.2229756519        2.6967781597
 H        -5.4659888073        1.8157601166        2.9236030308
 H        -6.9439719736        2.5420962861        2.4457217297
 H        -5.8617476913        3.4265034023        3.4842286433
 H        -8.6675888003       10.0433568012        0.5433276377
 H        -7.0844122899        9.3808193552        0.2049212730
 H        -7.1322986710       10.3419102147        1.6118156423
 H        -9.5907746727        9.2797023250        3.5143728191
 H        -7.9608251357        9.8445135705        3.6947603985
 H        -8.3258786167        8.1911232560        4.1003189262
 H       -11.3843910131        5.8445776647        4.6644805573
 H       -12.9391016430        5.0786217760        5.0679815328
 H       -12.7953120200        6.0325739742        3.5172679905
 H       -11.0196521504        2.1222001477        4.2550649670
 H       -12.2372910401        2.7192231207        5.3683605495
 H       -10.6437886196        3.5504067456        5.2645908009
 H       -15.1491831654        0.9245405434       -0.7876697023
 H       -16.8260646432        0.8864940520       -1.3912315487
 H       -16.4804929347        1.1136623103        0.3702637811
 H       -16.0239851399        3.9342264257       -2.9542874853
 H       -15.6187619888        2.1873918414       -3.0348291671
 H       -14.5403747406        3.5068273700       -2.4562294881
 Na       -8.6405865149        2.9472631913        0.4865649548
