117

 C       -17.9919187282        4.8873472320       -1.1333291923
 C       -17.7521279115        3.3622433175       -1.0110866773
 O       -18.5841624063        2.4500034183       -0.9939916903
 C       -16.2864107747        2.9360791660       -1.0144560051
 C       -15.3473567067        3.6405800970        0.0485390409
 O       -14.5935151552        4.5317315614       -0.2629773926
 C       -15.3217936149        3.1978263025        1.5006776883
 C       -14.2824600028        3.9979670405        2.2714377301
 C       -13.0938138081        3.2085448614        2.8859074729
 O       -13.0429463086        2.0115832880        2.7191841684
 C       -11.9032344209        3.9777199117        3.5821961882
 C       -10.8698050076        4.1451601169        2.4359549711
 O       -10.0509608580        3.2272056314        2.2969489630
 C       -10.8213959121        5.4024845353        1.6333036496
 C        -9.7819458691        6.3928890411        2.2296860234
 C        -9.2985043966        7.5774175135        1.3357278145
 O        -9.7152244382        7.7899329734        0.2289383412
 C        -8.0755955864        8.4774226156        1.8432075757
 C        -6.8782252610        7.5148275394        1.9740171949
 O        -6.7197729679        6.9253057244        3.0540737548
 C        -5.9138889319        7.2941076812        0.6772940394
 C        -5.1371706450        6.0133451175        0.7013896669
 C        -5.9320940757        4.7065598794        0.9434104899
 O        -7.0741415063        4.7068866825        0.6315411246
 C        -5.1684435619        3.3589368847        1.4276169976
 C        -5.4142361371        2.3602572515        0.2939680286
 O        -6.5672267328        2.0666891080        0.0010885287
 C        -4.2630893289        1.7797047937       -0.5085519890
 C        -4.7240342992        1.3211744725       -1.9681782152
 C        -4.9379690531        2.5209252239       -2.8133641902
 O        -4.8278035811        3.6701150129       -2.4465987139
 C        -5.4649365503        2.1430737489       -4.2195044253
 C        -7.0048642821        2.1137814412       -4.0867514624
 O        -7.6240288948        1.1201097877       -3.6865672953
 C        -7.7472700881        3.4215239674       -4.3430882171
 C        -9.3152162347        3.1333749817       -4.1329970471
 C        -9.5221322495        2.8533963305       -2.6427175913
 O        -8.8972293172        3.4859510125       -1.8304912648
 C       -10.7428945676        1.8783504065       -2.2054316539
 C       -10.1802518662        0.7863339334       -1.2200752345
 O        -9.8100577067        1.1832038945       -0.1427640734
 C       -10.1058145430       -0.6290621247       -1.6819182071
 C       -11.7592058976        2.7979153854       -1.4298236350
 C       -11.4934805336        1.2311849110       -3.4231592848
 C        -5.0786047277        3.0955001645       -5.3999274315
 C        -4.9098157694        0.7668318588       -4.6744565271
 C        -3.6989167265        3.5784384864        1.8117179180
 C        -5.8287082723        2.7327652125        2.6744225183
 C        -7.7858199313        9.6546468217        0.8394736855
 C        -8.5499027763        9.0602044961        3.2753246644
 C       -12.4199896241        5.3281138843        4.2452958436
 C       -11.3543987169        3.0699032120        4.7191014369
 C       -16.1220802953        1.4118864290       -0.6891010996
 C       -15.6206599098        3.1403849875       -2.4297023748
 H       -18.8644380220        5.1964102508       -0.6215051651
 H       -18.2355904053        5.1014256723       -2.1921017893
 H       -17.0806462717        5.4073946081       -0.8034647676
 H       -14.9979712859        2.1927509003        1.6040112773
 H       -16.2387863401        3.2397125718        1.9862559539
 H       -14.7286943024        4.4158574256        3.1612241658
 H       -13.8895762676        4.8298037733        1.7716485636
 H       -11.7772791209        5.9346732825        1.5993456582
 H       -10.5968205888        5.2947894074        0.6128784454
 H        -8.8294596632        5.8782540032        2.5002675829
 H       -10.1992251181        6.8697522918        3.0458243255
 H        -5.2547642183        8.1663868955        0.4880305932
 H        -6.6506933785        7.1305489298       -0.1328744747
 H        -4.3176348556        6.1126932751        1.4657789878
 H        -4.5741927522        5.9516145259       -0.2693237100
 H        -3.5709467989        1.1819545155        0.1103156893
 H        -3.7259387767        2.7266725414       -0.6817758654
 H        -5.6908581356        0.8264192374       -1.9214168108
 H        -3.9642918042        0.6153878296       -2.3853195772
 H        -7.6023435161        3.7967437654       -5.3751075372
 H        -7.4398028628        4.1562645341       -3.6339950606
 H        -9.5508268570        2.2949228945       -4.7526641288
 H       -10.0212198404        3.8732780152       -4.4161088701
 H        -9.3507827889       -0.7797490307       -2.4680441935
 H       -11.0234709025       -0.9315515311       -2.1314011849
 H        -9.7702896302       -1.1235703999       -0.7951953900
 H       -11.4656773537        2.9865860284       -0.4736058492
 H       -12.7139918138        2.2597528620       -1.3488513418
 H       -11.8563807813        3.8010556808       -1.9468146993
 H       -12.4695306115        0.7663856574       -3.1165276482
 H       -10.8093320048        0.5334309023       -3.8412608902
 H       -11.7754544007        2.0816503778       -4.0667496291
 H        -4.0099246029        3.1996670155       -5.6723478194
 H        -5.3483728970        4.0936949833       -5.1973204564
 H        -5.6495313613        2.7461227817       -6.2825346549
 H        -5.0117147732        0.5488196094       -5.7092267386
 H        -5.3305640916       -0.0721480342       -4.1099042503
 H        -3.8326366427        0.8276896952       -4.4981253740
 H        -3.1195551584        3.7208921574        0.9619385149
 H        -3.2634402731        2.6577240131        2.1851706207
 H        -3.4306470498        4.3428741974        2.5230758154
 H        -5.5177836764        1.7127181953        2.8537976793
 H        -6.9105949045        2.7075342114        2.7365250690
 H        -5.4757116032        3.2885137285        3.5102612485
 H        -8.7556706272       10.0650484674        0.6159374956
 H        -7.3191100676        9.3817664153       -0.1823952137
 H        -7.0044133353       10.2766951685        1.2856257129
 H        -9.4856951359        9.5809530701        3.3017563368
 H        -7.7894208307        9.7094571798        3.6696178536
 H        -8.6102072930        8.2413436244        4.0149146798
 H       -11.7382574892        5.6910627505        5.0631351725
 H       -13.3149383169        5.0630447286        4.7617625849
 H       -12.5330536425        6.1787629878        3.5593835728
 H       -11.0654619791        2.1137390361        4.2884793002
 H       -12.1317647625        2.8224958989        5.3811953428
 H       -10.4948064352        3.4790463880        5.2841979526
 H       -15.0161303760        1.1290995401       -0.7268035015
 H       -16.5760607295        0.8534834627       -1.5232081629
 H       -16.5771717769        1.0981356439        0.2289701485
 H       -15.9434397332        3.9831426728       -3.0699090414
 H       -15.7735662884        2.2241698514       -3.0145710443
 H       -14.5473447729        3.3641541692       -2.4048850089
 Na       -8.6183640707        3.0382880902        0.4277679759
