117

 C       -17.9751138939        4.7859681576       -1.0264342897
 C       -17.7349003516        3.3055401691       -1.0086653808
 O       -18.6545432561        2.5530071785       -0.9222862762
 C       -16.1706780897        2.8525427126       -1.0616585939
 C       -15.2883480080        3.6917956869        0.0073283483
 O       -14.5565148371        4.5707740978       -0.4418947026
 C       -15.2382393818        3.2426958377        1.5172628158
 C       -14.2985412692        4.0409489849        2.3675617008
 C       -13.0656416763        3.2034779156        2.8647598908
 O       -12.9751008396        2.0224911182        2.7013964586
 C       -11.8864442773        3.9620645750        3.6274536841
 C       -10.7156570672        4.2341219707        2.5672276449
 O        -9.9715994501        3.3101584827        2.2931329725
 C       -10.6681125892        5.4901267867        1.6478754741
 C        -9.7368966964        6.5313502563        2.2728528900
 C        -9.2499693063        7.6166469144        1.1965131086
 O        -9.8486342374        7.8750220382        0.2144049384
 C        -8.0336545071        8.4310645349        1.7055350631
 C        -6.8324140773        7.5097677355        2.0096792500
 O        -6.6386869609        7.0009955150        3.0578952580
 C        -6.0361662017        7.1876314027        0.7705234422
 C        -5.0572123133        6.0019245308        0.7863907679
 C        -5.8170685113        4.7076232461        0.9704198865
 O        -6.9905566391        4.6820490887        0.5550744943
 C        -5.1932669889        3.3432060270        1.4883709807
 C        -5.5840152196        2.4128765530        0.2930565356
 O        -6.7063074507        2.1191935436       -0.0641271784
 C        -4.3273674276        1.9188311439       -0.4319040879
 C        -4.5699727212        1.3277484900       -1.8601636388
 C        -4.9139792516        2.4627352652       -2.8206731946
 O        -4.8451714338        3.6803222638       -2.4900922734
 C        -5.4301395800        2.0861675020       -4.2392107528
 C        -7.0035208738        2.0677000849       -3.9757285797
 O        -7.4998776259        1.0254734722       -3.6361114652
 C        -7.7741085307        3.3285284323       -4.2762878077
 C        -9.2849911549        3.0762363743       -4.1675669438
 C        -9.6522244168        2.8519138001       -2.6569512531
 O        -8.9852544730        3.4760767872       -1.8228354778
 C       -10.7452951513        1.9177036182       -2.2585161687
 C       -10.2830142517        0.6926810918       -1.1948947635
 O       -10.0208026195        0.9856714654       -0.0674815123
 C       -10.2580687576       -0.7965733513       -1.6311610447
 C       -11.7642944124        2.8258872486       -1.5648767574
 C       -11.4764364951        1.2803460029       -3.4975673425
 C        -4.9820629597        3.0583774086       -5.3776549041
 C        -4.9562568483        0.6414512525       -4.6201823363
 C        -3.7246154378        3.5048871898        1.7520306349
 C        -5.9117242185        2.8427235926        2.7889866402
 C        -7.9220229051        9.6241172982        0.7574150722
 C        -8.3888160881        9.0657005167        3.0554792388
 C       -12.4915698473        5.2856880406        4.2043655863
 C       -11.2791938595        3.0801054006        4.7096043462
 C       -16.1042772160        1.3338444702       -0.7126763275
 C       -15.6894258407        3.2522523796       -2.4247214951
 H       -18.9896949919        5.0101567767       -0.5784916706
 H       -18.0924765807        5.0430835949       -2.0353975218
 H       -17.1309060785        5.3499896058       -0.5566208693
 H       -14.8844188149        2.2186296679        1.6008850859
 H       -16.2356439911        3.2380976535        1.9546618832
 H       -14.7442129906        4.5766973969        3.2089168216
 H       -13.8255260509        4.8496716594        1.7917498396
 H       -11.5499083780        5.9558521053        1.3202133777
 H       -10.1661686853        5.1803439589        0.7833579780
 H        -8.9182586553        6.1168971999        2.7753897625
 H       -10.3494446984        7.1739442455        2.9867356642
 H        -5.4235421757        8.1455099310        0.6544459947
 H        -6.6887527047        7.0427225024       -0.0893287270
 H        -4.3288724215        6.0899708506        1.5913166512
 H        -4.4674114266        6.0785018575       -0.1624430141
 H        -3.9780737951        1.1209979649        0.2566355672
 H        -3.5604558212        2.6532679477       -0.4306307123
 H        -5.4070462003        0.6403687209       -1.7470076815
 H        -3.6551497943        0.7524854998       -2.1591732701
 H        -7.5881178461        3.5908685262       -5.3742575321
 H        -7.5712297249        4.1908831071       -3.6756525304
 H        -9.5534346989        2.2593653011       -4.8499739088
 H        -9.8645901191        3.9468844556       -4.5388403600
 H        -9.5094149027       -0.9379548404       -2.4146839355
 H       -11.1807539687       -1.0732981396       -2.0567146255
 H        -9.8792047510       -1.3391407947       -0.7313023128
 H       -11.4579985589        2.9205716394       -0.4923014786
 H       -12.8072048011        2.4574711027       -1.5562053890
 H       -11.6809178473        3.8391474711       -2.0128754081
 H       -12.3664367592        0.7546574870       -3.1196091545
 H       -10.7659924907        0.6159324150       -3.9688368767
 H       -11.8725858757        2.1103386260       -4.1273982319
 H        -3.9952768801        2.9001770746       -5.7533378724
 H        -4.9999410965        4.0543843776       -5.0287436199
 H        -5.6604644477        2.9931107613       -6.1975875920
 H        -5.3001744461        0.3116399461       -5.5620034816
 H        -5.4415501503       -0.1015840879       -3.8944710166
 H        -3.8702179507        0.5763769331       -4.5627199562
 H        -3.2084987729        3.7441084275        0.8611154572
 H        -3.1147263103        2.5723524241        2.0646765400
 H        -3.4698710428        4.3114665862        2.4463659451
 H        -5.7172220058        1.7645283827        2.9018927725
 H        -6.9705779662        2.9042914527        2.7246675936
 H        -5.5644303415        3.2760091498        3.7216378704
 H        -8.8721792371       10.1760755278        0.8485401706
 H        -7.9072787513        9.2634179210       -0.2333319523
 H        -6.9585770973       10.1210597734        0.8646318607
 H        -9.2249492231        9.7949768983        2.9282795681
 H        -7.5212138311        9.6094722392        3.3966170839
 H        -8.6925618758        8.4302212237        3.8322353742
 H       -11.8799721226        5.6416451815        4.9919664376
 H       -13.4803217146        5.1919139603        4.6745277199
 H       -12.3906138788        6.0701600544        3.4878234624
 H       -11.1124699879        2.1106626255        4.2893928867
 H       -11.9575144491        2.8836457234        5.5458153661
 H       -10.3845550852        3.4835795124        5.0675396351
 H       -15.1545706751        0.8280967774       -0.5637411648
 H       -16.5833570443        0.8496461827       -1.5830665670
 H       -16.8634664281        1.1986938391        0.0785960552
 H       -16.0296300298        4.2484853182       -2.6512894226
 H       -16.1776391502        2.6356741382       -3.1659649143
 H       -14.6315657661        3.2942208785       -2.6758226797
 Na       -8.6453306111        3.1395734729        0.4273158701
