117

 C       -17.9322930388        4.8642674761       -0.8218309164
 C       -17.6306733543        3.3712224569       -0.8000855617
 O       -18.5054995812        2.5097868476       -0.6856711257
 C       -16.1331555275        2.9037817158       -1.0335171693
 C       -15.1783575636        3.6492976697       -0.0421607633
 O       -14.5430152675        4.5845036131       -0.4724150505
 C       -15.2236885228        3.1549370077        1.4099028798
 C       -14.2273749589        4.0468448271        2.2297795184
 C       -13.0106960161        3.2855305750        2.7709226525
 O       -12.8836398820        2.0891024092        2.6186458184
 C       -11.8494487164        4.0761791502        3.5508792105
 C       -10.6892629049        4.2692473260        2.5255008499
 O        -9.8173723587        3.4076108227        2.4365579208
 C       -10.6690938765        5.4954403283        1.6895614803
 C        -9.9097027982        6.6481032227        2.3818658565
 C        -9.3698720436        7.6619433127        1.4028166974
 O        -9.9153788735        7.7888365277        0.3145809598
 C        -8.0672256732        8.5498926134        1.6158091448
 C        -6.8331132540        7.6721207783        1.7160933188
 O        -6.5886679430        7.1651489109        2.8309403130
 C        -5.8452740978        7.3752087358        0.6026347140
 C        -5.0790854006        6.0689839356        1.1064991893
 C        -5.9149416715        4.7806271998        0.9287179564
 O        -7.0762619714        4.8943981352        0.7133821589
 C        -5.2889499236        3.4019158333        1.4686844226
 C        -5.4442663537        2.3751035914        0.3153106700
 O        -6.5815639705        2.0443944769       -0.0125621962
 C        -4.1702687045        1.7345733854       -0.3955860682
 C        -4.5239945155        1.2594358524       -1.8445823647
 C        -4.8786180609        2.3528575061       -2.8015677768
 O        -4.8218172842        3.5079026329       -2.5837125481
 C        -5.4019648522        1.8832614117       -4.2423990493
 C        -6.8999651084        1.9470028758       -3.9454218741
 O        -7.5110788535        0.9593101691       -3.4913599383
 C        -7.6907711689        3.1714948266       -4.3306046267
 C        -9.2346819567        2.9774224992       -4.1024625935
 C        -9.6420125831        2.7410007262       -2.6624406579
 O        -9.1224696230        3.3449667978       -1.7704018198
 C       -10.8615213269        1.8317286508       -2.2765361609
 C       -10.5042778738        0.7640583484       -1.2425134820
 O       -10.1280390964        1.1233707863       -0.1426754756
 C       -10.5665909300       -0.7522107520       -1.6851819774
 C       -11.9097920048        2.6963190815       -1.5655103097
 C       -11.5532242159        1.1618304828       -3.5269345644
 C        -4.8183759317        2.9604593433       -5.2607130039
 C        -4.9456400341        0.4636596614       -4.6572281955
 C        -3.8482107002        3.4968599939        2.0085744134
 C        -6.2100494926        3.0802998209        2.7083715014
 C        -7.6947501593        9.5173591431        0.4702841240
 C        -8.2195950093        9.3460676038        3.0008031875
 C       -12.2661283674        5.4022576985        4.2085293789
 C       -11.3444325639        3.1133914513        4.6498995164
 C       -16.0939854798        1.3838884137       -0.8817787122
 C       -15.8189974765        3.1867968558       -2.5697786283
 H       -18.8957097285        5.0072433513       -0.4352814951
 H       -17.8858816556        5.3496827202       -1.8551295076
 H       -17.2245637611        5.3153490104       -0.1531197137
 H       -14.8607719693        2.0758908572        1.4250544857
 H       -16.2503858074        3.1539317355        1.8696189739
 H       -14.6502508873        4.5170001981        3.1488424352
 H       -13.9226858824        4.9629176575        1.6473754018
 H       -11.7746889301        5.7963972544        1.5908749027
 H       -10.2179264011        5.2759452050        0.6549122381
 H        -8.9325518291        6.2210464657        2.8874897453
 H       -10.4990364366        7.0653078710        3.1716799118
 H        -5.1535532978        8.1593965973        0.4778860118
 H        -6.3548011409        7.1035626515       -0.3293853004
 H        -4.8162145312        6.0883587319        2.1663488374
 H        -4.1477117316        6.0754043246        0.6099726740
 H        -3.6570470514        0.9333757346        0.1319219259
 H        -3.4556413991        2.5948792201       -0.4328486818
 H        -5.3281882273        0.5022865757       -1.7479676773
 H        -3.6475610541        0.7359514003       -2.1902314517
 H        -7.5495824363        3.3989903182       -5.3529212598
 H        -7.4420125830        4.0847243813       -3.7299772888
 H        -9.5042850643        2.0456197491       -4.6390574854
 H        -9.8465296674        3.7682876975       -4.5746946213
 H        -9.9526841224       -0.8445380967       -2.5999309680
 H       -11.6221529346       -0.8655236032       -2.0307327990
 H       -10.1610529939       -1.4674589417       -1.0088128349
 H       -11.4389283164        3.0817915212       -0.7111537076
 H       -12.7544974488        2.1007547214       -1.1814765976
 H       -12.3198398472        3.5063236627       -2.2152257046
 H       -12.3919295736        0.5929211275       -3.1599756044
 H       -10.7919315658        0.5584858631       -3.9936717718
 H       -11.8961482538        1.9314933975       -4.1760726768
 H        -3.7733915148        2.6492014864       -5.4076475693
 H        -4.8607145853        4.0013627336       -4.9145318036
 H        -5.2961612346        2.9572619776       -6.2542527980
 H        -5.4561561775        0.2935976104       -5.6405399487
 H        -5.3472499090       -0.3276964042       -4.0902603191
 H        -3.8424735003        0.4172159489       -4.7584280721
 H        -3.1875373215        4.1381759946        1.3996876160
 H        -3.3149126504        2.5892857770        1.9033614646
 H        -3.7835771605        3.9138321353        3.0378550128
 H        -5.8527626360        2.2200335713        3.2925252610
 H        -7.2782852149        2.8946312636        2.4003713129
 H        -6.1542912204        3.9103664726        3.4289231921
 H        -8.3486798191       10.3372185570        0.5304353560
 H        -7.7531342982        8.9584711409       -0.5072371887
 H        -6.6764260950        9.7958265143        0.5317290875
 H        -9.1806513158        9.7977394797        3.0417771216
 H        -7.4419705667       10.0747669992        3.2506409180
 H        -8.3066324451        8.6016230650        3.8497443102
 H       -11.3911872544        6.0447036830        4.5068707695
 H       -12.7664597607        5.2248612868        5.1456426541
 H       -12.8266920633        6.1508038181        3.6139650299
 H       -11.1738768598        2.0966313170        4.2701729930
 H       -11.9776525955        2.9666609213        5.4902190320
 H       -10.3955487432        3.5935348956        5.0241059344
 H       -15.0554234750        1.0489035718       -1.0450417936
 H       -16.6253747008        0.9289536917       -1.7055304053
 H       -16.6023726226        1.0698047453        0.0017022695
 H       -15.3435057191        4.1315046034       -2.8626479464
 H       -16.7489340379        3.2097715693       -3.1414671289
 H       -15.2518749587        2.3709557247       -2.9934726733
 Na       -8.8585788837        3.0464967847        0.4341754572
