117

 C       -17.8711382079        4.8540253190       -0.6785552787
 C       -17.6275000996        3.3504786965       -0.7943662194
 O       -18.4688206915        2.5700141487       -0.4704870263
 C       -16.1361912665        2.8508818943       -1.1805844413
 C       -15.2025670131        3.6415127602       -0.1514472807
 O       -14.4703509469        4.5902849145       -0.4003014790
 C       -15.1261287516        3.1784235262        1.3497956569
 C       -14.2026126813        4.1045564564        2.1974266063
 C       -13.0059040271        3.3087298026        2.8219642624
 O       -12.8255166682        2.1637263143        2.5247818881
 C       -11.8210989650        4.0732263195        3.6171827675
 C       -10.7080677590        4.2974854184        2.5576542296
 O        -9.7939251836        3.4806384898        2.4379655022
 C       -10.6853021482        5.6262434663        1.7257512307
 C        -9.7945428087        6.7165556452        2.4223233379
 C        -9.2573372273        7.6705721959        1.2547582054
 O        -9.9366157796        7.8113723054        0.3210072493
 C        -8.0267661389        8.6147664446        1.5198247043
 C        -6.8001503434        7.6367982428        1.8209862064
 O        -6.6513792425        7.1722059265        2.9106550102
 C        -5.7650600051        7.3903530040        0.6693217254
 C        -5.0816830528        6.1205860538        0.9738088535
 C        -5.9599648133        4.8582143419        1.0215304157
 O        -7.1475380008        4.8489580243        0.7522610160
 C        -5.3596430879        3.4760159307        1.5397986650
 C        -5.4543650994        2.4387925560        0.3273483851
 O        -6.5318642041        1.9478635827       -0.0027698015
 C        -4.2392881594        1.7965230714       -0.3427372238
 C        -4.5196210006        1.1195437954       -1.7412492895
 C        -4.8101213446        2.1948077843       -2.7871783426
 O        -4.7638572394        3.4078952569       -2.4717615669
 C        -5.3373994976        1.8178435367       -4.2263098290
 C        -6.9605093111        1.8834305019       -3.9899116258
 O        -7.4779682021        0.9241552922       -3.4481122035
 C        -7.7335412534        3.1508011199       -4.3085289535
 C        -9.2804320089        2.8612982322       -4.1337237567
 C        -9.7065468118        2.7511122653       -2.6648213101
 O        -9.0618998818        3.3150289464       -1.7939186386
 C       -10.9816516465        1.8745832682       -2.3472746511
 C       -10.4392308918        0.7872841161       -1.3172489879
 O       -10.0721222515        1.0771482823       -0.2165792209
 C       -10.6450903305       -0.6725548391       -1.5668391294
 C       -12.0790096804        2.6984118473       -1.6359533489
 C       -11.6684640191        1.1736465757       -3.6186405829
 C        -4.8646261335        2.8252760443       -5.2720638400
 C        -4.8890583848        0.4475976509       -4.6783274115
 C        -3.9087343823        3.5648132680        2.1319547330
 C        -6.3192469003        3.0316271082        2.5702281649
 C        -7.8333661830        9.5947249675        0.3574714528
 C        -8.1564698091        9.4886544157        2.7862010013
 C       -12.2422131550        5.4064054463        4.1472420495
 C       -11.3841905778        3.0673013836        4.6968324243
 C       -16.0718908450        1.3386113090       -0.8950239592
 C       -15.8403903273        3.2285162700       -2.6348784834
 H       -18.9096176699        5.0103270382       -0.4010305975
 H       -17.6884866150        5.2731784597       -1.6374304147
 H       -17.2318824392        5.3326244972        0.0696122456
 H       -14.6722595576        2.1799207888        1.3178064109
 H       -16.0470437390        3.0800927544        1.8814338119
 H       -14.7394733369        4.6418924732        2.9858269646
 H       -13.8289732776        4.9306561290        1.6099567758
 H       -11.7735080460        5.9966168442        1.5783207874
 H       -10.2345666196        5.3675390532        0.7461983684
 H        -9.0882510551        6.2111376874        3.1147596949
 H       -10.3907182351        7.3179560092        3.0901010287
 H        -4.9806754113        8.1469587928        0.6843185625
 H        -6.2627823208        7.3384832409       -0.2728660670
 H        -4.6611653149        6.2157531809        2.0011775211
 H        -4.1698720450        6.0540753471        0.3410233565
 H        -3.7460853586        1.0883134507        0.3634505088
 H        -3.5164079458        2.6225162209       -0.4282417805
 H        -5.4629904124        0.6146027725       -1.6406071720
 H        -3.7371597251        0.3549268139       -1.9543280305
 H        -7.5637228081        3.5018638027       -5.3505457516
 H        -7.4923525183        3.9467845569       -3.6704311038
 H        -9.5282375079        1.9858406178       -4.7039128341
 H        -9.8761703201        3.6483819149       -4.5398677967
 H       -10.1189668309       -1.0725618524       -2.4393245272
 H       -11.6953193215       -0.7486582859       -1.6646536707
 H       -10.1820438965       -1.2202670295       -0.7166413999
 H       -11.6288743068        3.3042370496       -0.9252356173
 H       -12.7160446749        2.0426010380       -1.0682500934
 H       -12.7450181098        3.2207272056       -2.3338060926
 H       -12.5927209052        0.7277152132       -3.2415503795
 H       -10.9825239501        0.4831115607       -3.9721955025
 H       -11.8563578900        1.9132926307       -4.4018794651
 H        -3.7314285855        2.7886813669       -5.4104432893
 H        -5.2655287518        3.8267009205       -5.1923882622
 H        -5.2989210799        2.4494625313       -6.2622820715
 H        -5.1974948348        0.3090808484       -5.6549805290
 H        -5.3528312624       -0.4227110143       -4.1274369776
 H        -3.8190837574        0.4480912533       -4.5942970187
 H        -3.1957034387        3.8447014258        1.4828671585
 H        -3.5706462469        2.5525291593        2.4133490441
 H        -3.8681435857        4.2567820469        2.9414266323
 H        -5.9241927427        2.3986512913        3.3957841948
 H        -7.2159430068        2.5807816464        2.1500660901
 H        -6.6174790403        3.9302505949        3.1051121141
 H        -8.7008714198       10.2501547294        0.4580954243
 H        -7.7800570065        9.0211622326       -0.5962994408
 H        -6.9053622119       10.2064956067        0.4208868831
 H        -9.1406838384        9.9581313623        2.9318078283
 H        -7.3604427058       10.2321749946        2.8290537769
 H        -8.0476701090        8.8409863928        3.6616773846
 H       -11.4471312369        6.1090397598        4.4638372869
 H       -12.8916547543        5.2972005203        5.0562639823
 H       -12.8075455965        6.0472155101        3.4262987977
 H       -11.1316995111        2.0793484618        4.2699949775
 H       -12.1614095056        2.8256213545        5.4351355822
 H       -10.5459877029        3.5201485488        5.2702977739
 H       -15.0804442260        1.0760901300       -1.2657650478
 H       -16.7880977143        0.6984778421       -1.4148868931
 H       -16.2453373942        1.2135215447        0.1463545799
 H       -15.1924039386        4.1228850425       -2.7442622258
 H       -16.6874487659        3.5089231833       -3.2862992674
 H       -15.3345294363        2.3794812579       -3.1148086794
 Na       -8.7615900193        2.9403723605        0.4427402104
