117

 C       -12.8044972333        9.1188840061       -4.2017692359
 C       -11.8634590982        8.1682735027       -4.9292690686
 O       -11.7638164103        6.9912455467       -4.6511303338
 C       -10.9485718541        8.8729838621       -6.0375740394
 C        -9.7326863429        9.5340062584       -5.2561710339
 O        -9.5293448071       10.7570503271       -5.2508661803
 C        -8.9039953681        8.6220704539       -4.3259982831
 C        -8.4598041498        9.4157731482       -3.0262990555
 C        -7.5264166246        8.6312862354       -1.9703407550
 O        -6.6760129688        7.9289264235       -2.4096467917
 C        -7.7855088572        8.7634365253       -0.3882293320
 C        -9.0803305226        7.8705837210       -0.3087983217
 O       -10.1875448457        8.4195665518       -0.1094273741
 C        -8.8904884782        6.3730431111       -0.5852212927
 C        -9.7865801556        5.8004766879       -1.6920420900
 C        -9.6333927773        4.2530093181       -1.7183495329
 O        -8.7363697354        3.6780402446       -1.1797320536
 C       -10.8968884542        3.3559812478       -2.1910788451
 C       -11.5051167602        2.8164791752       -0.9083301924
 O       -11.1875492883        1.7903494687       -0.2827978954
 C       -12.6165858339        3.8309432739       -0.2557315709
 C       -12.5940686693        3.7113130160        1.2916365769
 C       -11.2348199870        4.0936047885        1.9062119788
 O       -10.2971296014        4.4469044917        1.1662099272
 C       -11.1901071573        3.8142826693        3.4158882562
 C       -10.8183100254        2.3214865909        3.6269999151
 O        -9.9408071863        1.8683623037        2.9809056952
 C       -11.7464582966        1.4995301513        4.6423123726
 C       -11.0986388456        0.1963425930        5.1390442995
 C       -11.4462832314       -0.9829425721        4.1536918595
 O       -11.9346216823       -0.6329204666        3.1148640223
 C       -10.8764838253       -2.3333572820        4.4091090531
 C        -9.6061618869       -2.2760693799        3.4754073633
 O        -8.5255170669       -1.9148837473        3.9505180435
 C        -9.7483875042       -2.7038259221        1.9664091809
 C        -8.5152454008       -2.4993974259        1.0895868667
 C        -8.3961423858       -1.0710235193        0.7265494197
 O        -9.2349867304       -0.2414983721        0.9058490874
 C        -7.0335193451       -0.5685028768        0.0786604989
 C        -6.5015987593        0.6007621931        1.0211118497
 O        -6.9350388770        1.7197311758        0.8961694309
 C        -5.5416549232        0.1554457234        2.1496210392
 C        -5.9962684289       -1.7563715934       -0.0628648838
 C        -7.3377819608       -0.0771191704       -1.3315624895
 C       -10.2414687723       -2.4351348952        5.8368519172
 C       -12.0191576117       -3.3753730508        4.0825594858
 C       -10.0692704161        4.5394123193        4.2116428252
 C       -12.5817518983        4.3346679995        4.0130737016
 C       -11.9308925311        4.2184071951       -3.0299245963
 C       -10.1885076464        2.2446471723       -3.0315631325
 C        -6.6259295253        8.1143509251        0.4039593345
 C        -8.0104594932       10.1744902820        0.1245472790
 C       -10.3568528328        7.7505653487       -6.9205257338
 C       -11.6375937596       10.0218891765       -6.8313445649
 H       -12.3578636453       10.1043192525       -3.8648636093
 H       -13.1167168644        8.5984514120       -3.3351888287
 H       -13.7248659040        9.3348748810       -4.7247886473
 H        -7.8670813152        8.4275293878       -4.7832841917
 H        -9.2939747669        7.6435146110       -4.0335918593
 H        -9.4145246723        9.7901912303       -2.5151502087
 H        -7.9845080014       10.2988904550       -3.2679924060
 H        -8.8864445764        5.6806596674        0.3052757786
 H        -7.8693639519        6.3450680550       -0.9169565849
 H        -9.5922477017        6.2283157774       -2.7020543582
 H       -10.8957335092        6.0890139343       -1.4573060764
 H       -13.6486325195        3.8348321785       -0.6432755212
 H       -12.0851183176        4.7927222153       -0.5886409430
 H       -12.8302711099        2.6375184165        1.4872690168
 H       -13.2336281998        4.4128886704        1.7425420144
 H       -12.6642540257        1.2888022620        4.0585704362
 H       -11.9758010484        2.0494236047        5.5688450933
 H       -11.3412853779       -0.0853848694        6.1886195682
 H        -9.9677022688        0.1950603516        5.1772438132
 H       -10.5278759112       -2.0739595977        1.5878145073
 H       -10.1624644092       -3.7115630661        1.9849668425
 H        -8.3621905726       -3.1965829099        0.2650364950
 H        -7.5548668023       -2.7894882162        1.6262553348
 H        -5.9672472178       -0.7190071725        2.5972588897
 H        -5.2944497083        1.0120271180        2.8308503505
 H        -4.5842398175       -0.2184222095        1.7558069439
 H        -6.2830500871       -2.3779220018       -0.9618451208
 H        -5.8223574226       -2.2433588557        0.8815005221
 H        -5.0623525175       -1.3089165755       -0.2407651329
 H        -6.6735266403       -0.6416348343       -2.0612069727
 H        -7.1019834888        0.9474748240       -1.4231640982
 H        -8.3577703856       -0.2970372569       -1.5982048374
 H       -10.8484569285       -2.6760661943        6.6669522799
 H        -9.6643524932       -1.6277439759        6.1230837777
 H        -9.4983533928       -3.2455726363        5.7196018801
 H       -12.7107618612       -3.3091230235        4.8735537038
 H       -11.6201813004       -4.3429590716        4.0516559169
 H       -12.4765862385       -3.2296067170        3.1601024633
 H       -10.2643921799        5.5940421799        4.2249710540
 H        -9.1699991563        4.3694458701        3.6445242060
 H       -10.0215364511        4.2502583945        5.2481182970
 H       -12.6515259640        5.3222495957        3.6769946512
 H       -12.4440712903        4.4314105559        5.0467744653
 H       -13.4794763571        3.6549212306        3.8840668123
 H       -12.7720640809        3.7201427998       -3.4054069261
 H       -11.4771971374        4.6313748876       -3.9828494044
 H       -12.1830949216        5.0724114507       -2.3963210429
 H       -10.9111789985        1.9570303700       -3.7826748784
 H       -10.0981913394        1.4150018906       -2.3180632286
 H        -9.1919854474        2.4582360686       -3.4718723590
 H        -5.6896648138        8.6138339795        0.1720087800
 H        -6.4588700557        7.0696002613        0.1046845082
 H        -6.8322290671        8.1882016148        1.4779803034
 H        -7.1144787645       10.8137327011        0.2667564804
 H        -8.5788624024       10.1969649939        1.0826452020
 H        -8.6007150016       10.7709755939       -0.5575775697
 H        -9.8049438988        7.1675910634       -6.1392360278
 H        -9.6938894852        8.2815147306       -7.6883902525
 H       -11.1303873140        7.1328371165       -7.3331182632
 H       -11.7824459443       10.8534390401       -6.1185668889
 H       -12.6245817297        9.6238939115       -7.1628720200
 H       -10.9643008969       10.3627780486       -7.6414481457
 Na       -9.0578873902        2.0677838843        0.6075225410
