117

 C       -17.7478056164        4.8846066392       -0.5582454688
 C       -17.4368588927        3.3757007031       -0.4944422671
 O       -18.3279538468        2.6058741585       -0.1335762965
 C       -16.0782517929        2.8869401755       -1.0290226905
 C       -15.0637592752        3.6736507275       -0.2022948070
 O       -14.3905875752        4.5684800629       -0.6414974799
 C       -14.9855044722        3.2639712862        1.2189958993
 C       -14.1394631486        4.1109531810        2.1679292456
 C       -12.8566659247        3.3755699264        2.6666355941
 O       -12.6542447559        2.1974556931        2.4147221900
 C       -11.8608104424        4.2113439626        3.5754270781
 C       -10.6234628327        4.4403048765        2.6107806024
 O        -9.8784273670        3.4997855247        2.4155409060
 C       -10.5766523387        5.7588800437        1.8192413627
 C        -9.5338023289        6.7494533891        2.3130087856
 C        -9.2088864388        7.7622944410        1.2631356439
 O        -9.8717828638        7.8677443749        0.1950612476
 C        -8.0287340694        8.7568238588        1.4869360054
 C        -6.8731960693        7.7269406246        1.7389357628
 O        -6.8136365277        7.2634300994        2.8949478206
 C        -5.7887304116        7.4224318846        0.6435978212
 C        -5.0856372934        5.9396301704        0.6939963409
 C        -6.0622321129        4.7874336203        0.9169377719
 O        -7.2304589370        4.9724470594        0.6705958708
 C        -5.5422427952        3.3676253999        1.6616096419
 C        -5.5442890388        2.2980679505        0.4434421113
 O        -6.5908274299        1.9789378101       -0.0610376444
 C        -4.2612032843        1.8400649852       -0.2400958041
 C        -4.6118304286        1.1341629995       -1.5820230906
 C        -4.7965710548        2.1794581298       -2.6869042818
 O        -4.6073378316        3.3186973655       -2.5286361268
 C        -5.4032730648        1.7237070677       -4.0268107530
 C        -6.9296945964        1.6849774058       -3.8477958060
 O        -7.4775409463        0.6579490266       -3.4415163764
 C        -7.7326968293        2.9180729362       -4.3017277797
 C        -9.2692692401        2.7118679395       -4.2141399691
 C        -9.7518746738        2.6481684691       -2.8007913648
 O        -9.1986557274        3.2915814239       -1.9446046485
 C       -11.0791758213        1.8197013897       -2.4192377146
 C       -10.4946129505        0.8008831396       -1.3430169011
 O        -9.8481815712        1.1311380202       -0.3478222897
 C       -10.9018231923       -0.6268543636       -1.5088246370
 C       -12.0350843138        2.8121887121       -1.6851557807
 C       -11.7321888958        1.1490963171       -3.6416252594
 C        -4.9300767703        2.7693978231       -5.1152804545
 C        -4.9407713634        0.2852795812       -4.4057194974
 C        -4.0976284862        3.5525604834        2.2293315957
 C        -6.4762111641        2.8209938774        2.7678011713
 C        -7.8378102542        9.5163879702        0.0687709971
 C        -8.3052607658        9.7561746040        2.6606426402
 C       -12.5377204092        5.3456179579        4.3030445138
 C       -11.4013044317        3.2096336146        4.6821592685
 C       -16.0413947304        1.3191882068       -0.9847073543
 C       -15.9740071497        3.3393765504       -2.5300810367
 H       -18.8112039029        5.0278862804       -0.5355929606
 H       -17.2345752354        5.3371912174       -1.4797094315
 H       -17.3902537629        5.3684843652        0.3430959627
 H       -14.6129572966        2.2650318070        1.1948488783
 H       -16.0020357382        3.1390171292        1.6146724760
 H       -14.6826515605        4.4908331492        3.0140357247
 H       -13.8490633139        5.0466434519        1.6743086136
 H       -11.5276205143        6.1092056577        1.8674939651
 H       -10.3194723968        5.4529886445        0.8463176179
 H        -8.6781241623        6.1805801159        2.7219752109
 H        -9.8544891416        7.2615398304        3.2393825469
 H        -5.0235277467        8.1796309485        0.8996131078
 H        -6.2815627979        7.6370879023       -0.3471112291
 H        -4.2572961447        6.0054793429        1.4176838539
 H        -4.5589484524        5.6569876199       -0.2374142898
 H        -3.7346298082        1.2616687108        0.4962453897
 H        -3.5849335213        2.6675724824       -0.4634385931
 H        -5.5007374214        0.4169479741       -1.5830669271
 H        -3.7478473169        0.5473254128       -1.8945829463
 H        -7.5526722955        3.2583665436       -5.2971981216
 H        -7.4149000901        3.7704669299       -3.6064654595
 H        -9.4630069179        1.8032838234       -4.7951650095
 H        -9.8488949762        3.5250922495       -4.7029724133
 H       -10.4570455281       -1.1227999848       -2.3490463446
 H       -12.0170253227       -0.7102172282       -1.3362919896
 H       -10.4076496372       -1.0787812062       -0.6947638133
 H       -11.5108463584        3.4067025079       -0.9234232932
 H       -12.8579973223        2.2809079939       -1.1866637854
 H       -12.6078266359        3.3702497547       -2.4259288965
 H       -12.5776402167        0.6035602202       -3.2507502797
 H       -10.9366602772        0.5219514709       -4.1509888600
 H       -11.9667084475        1.9347084772       -4.3462128964
 H        -3.9039994965        2.5491171059       -5.1196109234
 H        -5.1759616421        3.8249591309       -4.9087718570
 H        -5.2720049451        2.5871472016       -6.1004968175
 H        -5.1621704948        0.1523059679       -5.5215429419
 H        -5.3768105163       -0.4822374576       -3.8718059867
 H        -3.8613866453        0.2920132066       -4.2198827795
 H        -3.3089995013        3.8940147956        1.4491474344
 H        -3.7428886371        2.6606706009        2.6973997157
 H        -4.1623921956        4.4044846204        2.9764812785
 H        -5.8804844383        2.2852839063        3.4592454492
 H        -7.1501648845        2.1201212552        2.2798436589
 H        -7.0562972531        3.5316298973        3.3393343758
 H        -8.7390584831       10.0710963741       -0.1877581961
 H        -7.4389712974        8.8516317647       -0.7239837811
 H        -7.1195554991       10.2868861435        0.3360849576
 H        -9.1953501549       10.3308292214        2.5470454522
 H        -7.4710917393       10.4555089918        2.6626790215
 H        -8.3653407810        9.3125396284        3.6580693263
 H       -11.9613026648        5.6894305172        5.1539479693
 H       -13.5037009479        5.1076669290        4.6862216982
 H       -12.7295630267        6.2486065403        3.7359325869
 H       -10.9785194937        2.2990619759        4.3045986172
 H       -12.3186438567        2.8736579175        5.1277882562
 H       -10.8402885905        3.6385681561        5.4927628374
 H       -15.1365027335        1.0381034594       -1.5252047859
 H       -16.8908641877        0.8900788331       -1.5017602458
 H       -16.1473131205        1.0096969602        0.0667939720
 H       -15.5192736215        4.3260143225       -2.5383631641
 H       -16.8317162323        3.5351593041       -3.1534196806
 H       -15.3092547442        2.6318796846       -3.0372123551
 Na       -8.4658638231        2.9729972017        0.4637595047
