117

 C       -17.7294114098        4.9442750564       -0.4971592197
 C       -17.5003576909        3.4072976401       -0.4819476034
 O       -18.1963874928        2.6120254448        0.1003660487
 C       -16.0857404351        2.9781091959       -1.1458647275
 C       -14.9194050989        3.6409715499       -0.2247680130
 O       -14.2623732464        4.5745959177       -0.6114893409
 C       -14.9696422435        3.1845966188        1.2915882442
 C       -14.0288519675        4.1407958443        2.1130583331
 C       -12.8383977384        3.3989239598        2.6870589873
 O       -12.5238655101        2.2983368702        2.3310440140
 C       -11.8962473184        4.1763122249        3.6479818513
 C       -10.7285963381        4.4507599452        2.5845082971
 O        -9.8789666234        3.5870818866        2.3840709092
 C       -10.6409673349        5.7504363230        1.7768885115
 C        -9.5492899204        6.7113226152        2.3233662964
 C        -9.2180432223        7.7665706162        1.1789178756
 O        -9.9187171392        7.7834286432        0.2546532197
 C        -7.9100500714        8.8020667896        1.3135471553
 C        -6.7413881727        7.8273048492        1.6757107576
 O        -6.7360803598        7.3100406501        2.7866159518
 C        -5.8399093058        7.3780408072        0.5554774274
 C        -5.2504678397        5.9788255344        0.7996528378
 C        -6.1756357012        4.7890934498        1.0124944649
 O        -7.3117318129        4.7953041780        0.6672496017
 C        -5.5584499987        3.4027455118        1.6113430230
 C        -5.5777077100        2.3869104835        0.3858989817
 O        -6.6569550006        1.9420855510       -0.0611154013
 C        -4.2514682916        1.7886196305       -0.1162779924
 C        -4.5114958564        1.1989732572       -1.5330618663
 C        -4.8235667438        2.2477663470       -2.5981525585
 O        -4.5056416784        3.4200429760       -2.5075461276
 C        -5.3892477827        1.6460897349       -3.9181256881
 C        -6.9640667343        1.5542436195       -3.8140158844
 O        -7.5805957999        0.5544299056       -3.4316257932
 C        -7.7522553329        2.7670351361       -4.3189134710
 C        -9.2631947751        2.6191792603       -4.2503144049
 C        -9.7234294299        2.7044250724       -2.8066239444
 O        -9.2122025868        3.3487725536       -1.9048596913
 C       -11.0255509022        1.8392510733       -2.4755597040
 C       -10.5124017375        0.7735025463       -1.3271848530
 O        -9.7869197291        1.1668917020       -0.4481404905
 C       -11.0767336417       -0.6476602089       -1.4537668368
 C       -11.8655050840        2.8093483227       -1.6860327609
 C       -11.7609001845        1.0833203160       -3.5643954487
 C        -4.9148292727        2.6445995008       -5.0246276182
 C        -4.9054788168        0.2037017230       -4.2780878959
 C        -4.1982235471        3.4910875386        2.2558594019
 C        -6.4926464038        2.9191102986        2.7281374146
 C        -7.6525649078        9.6010870989        0.0712406611
 C        -8.3123002541        9.7083017728        2.4164347947
 C       -12.5788867553        5.3639583887        4.2503978212
 C       -11.3580295824        3.1814868035        4.7235714429
 C       -16.0022845171        1.3958012896       -0.9920280736
 C       -16.1215947641        3.3247082616       -2.6458738170
 H       -18.7647500709        5.2250708998       -0.5233715642
 H       -17.0646363084        5.4775245702       -1.2179585195
 H       -17.4414412919        5.1980130100        0.5346393650
 H       -14.5613624066        2.1277523830        1.4019533083
 H       -16.0332530968        3.1087952181        1.6406825766
 H       -14.5148174384        4.5908762206        3.0086052725
 H       -13.7405691550        5.0888848417        1.5621600300
 H       -11.6977034094        6.1618054066        1.8334146974
 H       -10.3887261248        5.4167572145        0.7826237046
 H        -8.6412298586        6.0084820119        2.5909608537
 H        -9.7724212469        7.0426844296        3.3119874671
 H        -5.0406570317        8.0944896682        0.4805514377
 H        -6.4879810792        7.3858487411       -0.3392063647
 H        -4.4284128864        6.1078131671        1.4892637678
 H        -4.7706420434        5.6351013982       -0.0834425482
 H        -3.8487904038        1.1986352510        0.6954739379
 H        -3.5174855244        2.6089770474       -0.2592878849
 H        -5.4335406502        0.5693524938       -1.6048411745
 H        -3.7054697354        0.5689200760       -1.9359283003
 H        -7.5711087874        2.9872708796       -5.3567012515
 H        -7.4210027960        3.6945395265       -3.7556556305
 H        -9.4133911934        1.5591776548       -4.6442887228
 H        -9.8269830444        3.3027301063       -4.9518010872
 H       -10.7076477368       -1.1524393578       -2.3591980509
 H       -12.1569836260       -0.4787560326       -1.3387698010
 H       -10.7750013474       -1.2704833579       -0.6105145371
 H       -11.4234613237        3.1165419958       -0.8080465251
 H       -12.8927832299        2.3682627006       -1.4952853783
 H       -12.2059314540        3.6340337895       -2.4135170183
 H       -12.5220946793        0.5511352833       -2.9596263082
 H       -11.0833200302        0.4419664299       -4.0929954858
 H       -12.1698690963        1.7934933651       -4.2802499931
 H        -3.9146426476        2.3211569949       -5.1818594567
 H        -4.9551659232        3.5932922115       -4.6494762612
 H        -5.4077668310        2.6796533810       -5.9659378287
 H        -5.3015949346        0.0766238008       -5.2803570747
 H        -5.3309440808       -0.5722361695       -3.6006799431
 H        -3.7919445158        0.0951683665       -4.2565163888
 H        -3.5566691892        4.1642013725        1.7056645259
 H        -3.6968451916        2.4442555219        2.3555339783
 H        -4.3094677946        3.9687096418        3.3143723141
 H        -5.8972976537        2.3163648450        3.4273770901
 H        -7.3554168738        2.3307924739        2.3706498772
 H        -6.8608291239        3.7776750584        3.2690559610
 H        -8.3421414619       10.3681610755       -0.0602543378
 H        -7.5181989095        8.9360550864       -0.8224625964
 H        -6.7926723385       10.1281003438        0.3756027561
 H        -9.1856962391       10.2836749069        2.2734692731
 H        -7.5386320983       10.4149513985        2.6801225897
 H        -8.4867412869        9.0542112680        3.3072179474
 H       -12.1333962115        5.8373382980        5.1179357065
 H       -13.5720867460        5.1769066045        4.5373097852
 H       -12.7832434744        6.1610026407        3.5581239579
 H       -10.8424695608        2.3594989995        4.2585881701
 H       -12.1472250912        2.7741826268        5.2718758058
 H       -10.7218145976        3.6852144321        5.4715232841
 H       -14.9990179678        1.0324188695       -1.3464496680
 H       -16.7868404337        0.8961626531       -1.5478972088
 H       -16.2262564754        1.2519403600        0.0337939076
 H       -16.1977853358        4.3879699733       -2.7917441554
 H       -17.0717976701        3.0671864294       -3.0788229423
 H       -15.3743837348        2.8725239139       -3.2479962688
 Na       -8.6118777538        3.1210280813        0.4280470241
