117

 C       -18.0692220511        4.9546757093       -0.3718447525
 C       -17.4946738277        3.5736636066       -0.1965458032
 O       -17.8434307994        2.8538495147        0.7235233448
 C       -16.2262141372        3.1112204429       -1.1002660905
 C       -14.9608945630        3.5992758431       -0.2681739920
 O       -14.2551988980        4.5298443243       -0.6569930327
 C       -14.7820688423        2.9883773184        1.1312854588
 C       -14.0003485089        4.0623603141        2.0935930709
 C       -12.8193846064        3.3684256346        2.6672384330
 O       -12.4984724313        2.2115537728        2.4511707219
 C       -11.8082057062        4.2804845832        3.4526096338
 C       -10.8052063912        4.6254360935        2.3821710434
 O        -9.9295890503        3.7891877818        2.1232099281
 C       -10.7581742538        5.9290852993        1.6067781751
 C        -9.4101734426        6.7341020501        1.8847220145
 C        -9.1489232428        7.8505518310        0.8580064859
 O        -9.8700200930        7.9035343351       -0.1534179710
 C        -7.9502333328        8.7465078746        1.0267602747
 C        -6.6215524280        7.9135635408        1.3414034630
 O        -6.2289813690        7.7886529194        2.4758082419
 C        -5.8639577152        7.1965206014        0.2361263608
 C        -5.1916722451        5.7950624950        0.6664793378
 C        -6.2298725854        4.7789024221        1.1080742748
 O        -7.3929537887        4.9089571531        0.7397314671
 C        -5.8061144111        3.4012091642        1.8504906213
 C        -5.7340303543        2.3491798728        0.6436805157
 O        -6.7617162804        2.2608474674        0.0745804565
 C        -4.4882382919        1.8167325410        0.0213861359
 C        -4.8360445139        1.0505550261       -1.1933305552
 C        -4.9507301610        1.9084746325       -2.4390223276
 O        -4.9736690963        3.1350934744       -2.4187250159
 C        -5.2367815587        1.2738811467       -3.8218880887
 C        -6.8151978610        1.3461861676       -3.7195529943
 O        -7.2470878895        0.4267337772       -3.1139757915
 C        -7.5622738462        2.4947944253       -4.3724478489
 C        -9.1061173109        2.2394635169       -4.2520728666
 C        -9.7366910866        2.6022732092       -2.8475587821
 O        -9.0627080630        3.3658215232       -2.1579377692
 C       -10.8769667276        1.8222685793       -2.2186551073
 C       -10.5343803564        0.7131228410       -1.1059288464
 O        -9.8119551983        1.0155777069       -0.1996429495
 C       -11.2317739409       -0.6265711017       -1.2184368087
 C       -11.7655195909        2.8853197896       -1.4504015750
 C       -11.7535279353        1.2735644182       -3.4250495956
 C        -4.5571314159        2.1563532744       -4.8972569810
 C        -4.7516203751       -0.2193881185       -3.9761095670
 C        -4.3739039510        3.5273345218        2.4584486910
 C        -6.8405220777        2.9314421317        2.8718002305
 C        -7.7370230757        9.7123968492       -0.1828651104
 C        -8.3580034290        9.7187582843        2.1389842034
 C       -12.3030686717        5.5037231430        4.2533646287
 C       -11.0916753788        3.4192951870        4.4538989338
 C       -16.2941788941        1.5886463811       -1.1991665124
 C       -16.3724595975        3.7430205646       -2.4991698443
 H       -18.4472771734        4.9821460541       -1.4296686957
 H       -17.3707266289        5.7193126738       -0.1190128574
 H       -18.9707852146        5.0072320239        0.2615033910
 H       -14.2156579814        2.0083213439        1.1062984306
 H       -15.8110401251        2.7852571323        1.4630830550
 H       -14.6698132633        4.5809660603        2.8300056479
 H       -13.6320894593        4.8566492701        1.3951169108
 H       -11.6194477052        6.6457517515        1.7319771699
 H       -10.7382224731        5.7849647020        0.4689665032
 H        -8.5226483304        6.1365857941        1.9221564545
 H        -9.4288827063        7.1769016452        2.9221609097
 H        -5.1002038226        7.9141848175       -0.1357246874
 H        -6.4988561531        6.9937888880       -0.6009318812
 H        -4.4232523448        5.8383833722        1.4025663841
 H        -4.7349954269        5.4140994320       -0.2393996350
 H        -4.0412011268        1.0262954974        0.6632468904
 H        -3.7842319759        2.6327703270       -0.0687631762
 H        -5.7790558350        0.5611587662       -1.0499495330
 H        -4.1466117701        0.1868016625       -1.3724046601
 H        -7.1696194124        2.6664963179       -5.4396275472
 H        -7.3649973079        3.4123184775       -3.8567698791
 H        -9.2507876212        1.1544865338       -4.5353615127
 H        -9.6491673524        2.8469296494       -5.0531519118
 H       -10.9699507937       -1.0907913043       -2.1675882645
 H       -12.2610716067       -0.5305267267       -0.9685563345
 H       -10.8909841781       -1.1848899109       -0.3271741902
 H       -10.9875248235        3.7180655518       -1.1180065124
 H       -12.2428646323        2.4727691991       -0.5510761015
 H       -12.4295002651        3.4190304879       -2.0975283753
 H       -12.6879912290        0.8269243401       -3.0579025283
 H       -11.1845746305        0.4718851865       -3.9106514471
 H       -12.0564071435        2.1105594752       -4.1144600957
 H        -3.5172656892        2.0441838273       -4.7762424946
 H        -4.7057525194        3.2166981165       -4.7027873180
 H        -4.7741051953        1.8506174144       -5.8703162326
 H        -4.7706937907       -0.5087112525       -5.0379999721
 H        -5.3947695573       -0.8443823185       -3.3342805857
 H        -3.6988355999       -0.3439581429       -3.6775690649
 H        -3.7717058242        4.0851339743        1.6396964399
 H        -4.0759606445        2.5254947325        2.7452599889
 H        -4.3380980923        4.0108289043        3.4288848758
 H        -6.5612070232        1.9277938643        3.1754680782
 H        -7.7888262798        2.8774872743        2.3945664213
 H        -6.8803146711        3.6558021307        3.6656333663
 H        -8.6769704986        9.9223544989       -0.7005379077
 H        -7.2395208802        9.2209647444       -0.9099292935
 H        -7.3004256565       10.6422255997        0.2095778896
 H        -9.2933136143       10.2739109542        1.8855164321
 H        -7.5635804221       10.4470367701        2.2750049794
 H        -8.4429461612        9.3598983212        3.1162211094
 H       -11.6782665754        5.9525349709        4.9456949926
 H       -13.1588187265        5.1998013441        4.8857192762
 H       -12.7265477967        6.3339452954        3.7361286389
 H       -10.5189446853        2.6871537392        3.9363485586
 H       -11.7725405436        3.0201979760        5.2261067228
 H       -10.3667922367        4.0005879267        4.9239694362
 H       -15.3722494787        1.3508238110       -1.6636115022
 H       -17.2041074648        1.3197521493       -1.7301698939
 H       -16.1257300905        1.1719812861       -0.2048499698
 H       -16.2065560512        4.8146879695       -2.5111402211
 H       -17.3052030505        3.4397090219       -2.9836678771
 H       -15.6104939261        3.3439642162       -3.1772800667
 Na       -8.7265207385        3.2115761607        0.1668550929
