117

 C       -18.3879651677        4.9510435300       -0.4388683191
 C       -17.6583741776        3.6335455923       -0.1542393509
 O       -17.8056264312        2.9962765900        0.8585683564
 C       -16.4318311076        3.2414500445       -1.0647816901
 C       -15.1391214964        3.6478578280       -0.2279236767
 O       -14.4577894895        4.5257013200       -0.7060196719
 C       -14.7684973823        3.0445557368        1.1917118925
 C       -14.0249455056        3.9538828501        2.0900867310
 C       -12.7875168332        3.3217800085        2.7637791676
 O       -12.5840682635        2.1349013205        2.7189394503
 C       -11.7215501835        4.2732948159        3.4286347134
 C       -10.6928213618        4.6816581197        2.2695540099
 O       -10.0496042862        3.7463824285        1.8253855961
 C       -10.6462138177        6.0041627500        1.5775875565
 C        -9.5368065641        6.9727512739        1.8932048380
 C        -9.1551945849        7.8398554654        0.7038703708
 O        -9.7438627621        7.8912182384       -0.3017600685
 C        -7.8744282388        8.8083668861        0.9172360405
 C        -6.6349718592        8.0117593533        1.2579528525
 O        -6.2514707836        7.8657088341        2.3839526307
 C        -5.9614842572        7.1824315500        0.1953703544
 C        -5.2086501097        6.0602743893        0.7939833175
 C        -6.1873140678        4.8914582714        1.0708515149
 O        -7.3763402065        5.0468269401        0.9017812392
 C        -5.7300843417        3.5039753200        1.6505107757
 C        -5.7838167067        2.3912693657        0.5775164795
 O        -6.8812173316        1.9812232227        0.1313766995
 C        -4.4712693278        1.6472967712        0.1965173330
 C        -4.6055628142        0.8663426207       -1.1683438563
 C        -4.9666015355        1.8007763550       -2.3575038034
 O        -4.9708048195        2.9998685002       -2.1014793286
 C        -5.2361598422        1.1526963687       -3.7712106293
 C        -6.7740256650        1.0963240772       -3.7428405212
 O        -7.4186107196        0.2504987694       -3.0980397967
 C        -7.5720669332        2.2326108062       -4.3775423857
 C        -9.0717188068        2.1178581923       -4.1846693319
 C        -9.4997484791        2.5081801079       -2.8009193258
 O        -8.8911337751        3.2567383900       -2.0568251921
 C       -10.9182981508        1.8780978543       -2.2086001292
 C       -10.5116759730        0.8540653414       -1.1549830868
 O        -9.7923183689        1.2194605334       -0.2444546213
 C       -10.9713705169       -0.6034504628       -1.2346580750
 C       -11.7222187314        3.0110982680       -1.5465196050
 C       -11.7648061303        1.2286047010       -3.2799663787
 C        -4.7297174250        2.0078377764       -4.9513892312
 C        -4.6163726174       -0.2172584069       -3.8149286880
 C        -4.3600430327        3.6158657064        2.4445608503
 C        -6.7700745718        3.1534780759        2.7225428151
 C        -7.6365468803        9.6188275333       -0.3985554051
 C        -8.1867831470        9.7245681798        2.0926250041
 C       -12.4355264251        5.4463322475        3.9972133141
 C       -10.8764485090        3.4636861061        4.5431737041
 C       -16.3670175236        1.6633732338       -1.2419557496
 C       -16.3525222638        3.9177084573       -2.4324860232
 H       -18.2357276072        5.3459452507       -1.4111080994
 H       -17.9021297841        5.5518874157        0.3482659191
 H       -19.4337105429        4.9109957989       -0.1549775566
 H       -14.0970976685        2.1834881126        1.0143116266
 H       -15.6832159580        2.6506606166        1.6943577452
 H       -14.7510619597        4.1985765545        2.8672808432
 H       -13.8389085208        4.8806429571        1.5187054542
 H       -11.5794422181        6.5724824424        1.5969925431
 H       -10.5086358704        5.8416442581        0.5272175053
 H        -8.5681990193        6.4566896439        2.1475055270
 H        -9.7446513958        7.5553753690        2.7553356142
 H        -5.3052630735        7.7026234422       -0.4595390167
 H        -6.7865685020        6.8281628060       -0.4544030171
 H        -4.6429857658        6.4552885598        1.6723868598
 H        -4.4838599444        5.7607342299        0.0186561125
 H        -4.1861864912        0.9056791494        0.9345871914
 H        -3.6584965196        2.4089851000        0.0867775843
 H        -5.4103247286        0.0825765498       -1.2031974859
 H        -3.7118482015        0.3161511998       -1.4018715822
 H        -7.4387916820        2.1421310012       -5.4102638902
 H        -7.1402550064        3.2266330385       -4.0743693641
 H        -9.2458538690        1.0933736556       -4.4136185914
 H        -9.6312109584        2.6905981875       -4.8816298411
 H       -10.6035761817       -0.9120197608       -2.2125400909
 H       -12.0756300164       -0.6021606386       -1.1883790073
 H       -10.6690539079       -1.2023817167       -0.3797283370
 H       -11.1285750973        3.6664856286       -1.0331433456
 H       -12.4332348867        2.5661660849       -0.8633058542
 H       -12.1836037885        3.6436570187       -2.3301598133
 H       -12.8084630862        1.0585537945       -3.0180408544
 H       -11.3394793312        0.3219218774       -3.6653593708
 H       -11.8332003074        1.9664980952       -4.0518352832
 H        -3.6544232328        1.8326115809       -5.1568983492
 H        -4.7561961227        3.0425819558       -4.7846797056
 H        -5.2646239116        1.6174107373       -5.8335360530
 H        -4.7133231761       -0.6239792369       -4.7982276581
 H        -5.0228016674       -0.9328774036       -3.0745337145
 H        -3.5546150551       -0.0430676461       -3.6953587037
 H        -3.5556689441        3.9584604276        1.9424616653
 H        -4.1985052563        2.6278421413        2.9312481679
 H        -4.6458465093        4.2788522976        3.2520231200
 H        -6.3302158745        2.4473660401        3.4530275866
 H        -7.6333661485        2.6509610025        2.2323760262
 H        -7.0875481626        4.1168775819        3.1554668380
 H        -8.5014193217        9.7829666317       -1.0173786076
 H        -6.8616046728        9.1459161922       -1.1153704449
 H        -7.1957225010       10.5237178250       -0.0102309721
 H        -9.0850778106       10.2820269352        2.0206461907
 H        -7.3476529382       10.3592898696        2.3537036072
 H        -8.2093134624        9.1605966894        3.0613919745
 H       -11.8285536890        6.1009970947        4.6705989593
 H       -13.2791114436        5.2311082082        4.6069793557
 H       -12.7949713280        6.1928821314        3.2735825319
 H       -10.5599505234        2.4921402564        4.1385037651
 H       -11.5807523091        3.3657869227        5.3262998341
 H        -9.9185884832        3.9397977456        4.9194853767
 H       -15.5019367276        1.4326563882       -1.8733240958
 H       -17.3175093802        1.4039656147       -1.6473097453
 H       -16.1093169959        1.2305595875       -0.3203980187
 H       -15.6553839260        4.7400899157       -2.3715236039
 H       -17.2921608925        4.1386628377       -2.8969180167
 H       -15.8215952520        3.2686457342       -3.1005052294
 Na       -8.8189217756        3.1411879360        0.1955144905
