117

 C       -18.5385148979        4.9180759075       -0.4120595732
 C       -17.6194906700        3.7308440136       -0.0875296259
 O       -17.9100448687        3.0432318423        0.8723269466
 C       -16.4182947848        3.2936947316       -1.0333958786
 C       -15.1332872781        3.7024832203       -0.1980896867
 O       -14.4032933790        4.6033388528       -0.6140762392
 C       -14.7544115227        3.0415613915        1.1540440716
 C       -13.9630379544        3.9405725947        2.1328894857
 C       -12.7862861747        3.2688547092        2.7804812855
 O       -12.6138812917        2.0779216753        2.8428202674
 C       -11.7392770264        4.3535972030        3.4094276442
 C       -10.8066636313        4.6497548321        2.1857172216
 O       -10.0886415204        3.7011262811        1.8187165576
 C       -10.7509625149        5.9927535644        1.4571972246
 C        -9.6068960969        7.0089883880        1.8928339327
 C        -9.1250169833        7.9272048495        0.6924596051
 O        -9.7073859713        7.7782951763       -0.3836354798
 C        -7.8964041336        8.9025469338        0.8889589894
 C        -6.6682309441        7.9214185558        1.2741435729
 O        -6.2816591781        7.9530343985        2.4171896570
 C        -5.8697795398        7.2094605651        0.1194887309
 C        -5.2184129764        5.9643495234        0.7680377544
 C        -6.2407541269        4.8377662825        0.9981811221
 O        -7.4139711036        5.0329866131        0.8297337245
 C        -5.7060352014        3.5438687873        1.7181662350
 C        -5.6748378727        2.2700784088        0.6084432562
 O        -6.7787892130        1.9590257540        0.2076492325
 C        -4.4327155153        1.5691935581        0.2116783522
 C        -4.4122999122        0.8162985826       -1.0771705571
 C        -4.8742666492        1.7500868752       -2.2609772927
 O        -4.9569990356        2.9792407806       -2.1629528771
 C        -5.2518719515        1.0991302801       -3.6207073333
 C        -6.8694453475        1.0106329514       -3.6202539736
 O        -7.3870725852        0.0734940270       -3.1576814027
 C        -7.6235088026        2.1384723643       -4.4529271044
 C        -9.1084992585        2.0573560854       -4.1821771362
 C        -9.5568118698        2.4787328300       -2.7908513200
 O        -8.7978724848        3.1473888360       -2.0867474009
 C       -10.9108744954        1.9499830734       -2.2804867738
 C       -10.4350127558        0.8850421338       -1.1164056556
 O        -9.8212143078        1.1729759203       -0.1410355871
 C       -10.8518093830       -0.5684287457       -1.2740487150
 C       -11.6540553478        3.1086235948       -1.5541117125
 C       -11.7387797847        1.2088352230       -3.3607884919
 C        -4.8208536380        2.0171830727       -4.7963515614
 C        -4.6060930868       -0.3234047895       -3.7831094321
 C        -4.2915278925        3.6504652838        2.2954377375
 C        -6.8100788621        3.2141625758        2.7729252280
 C        -7.6753316963        9.6698425551       -0.4395742656
 C        -8.0246493730        9.8763525995        2.0361926299
 C       -12.4488974543        5.5348464964        3.9747153642
 C       -10.9744680890        3.5470672065        4.4607082815
 C       -16.5162080094        1.6848282884       -1.2123147198
 C       -16.4080713141        3.9393390878       -2.4304545015
 H       -18.3780271934        5.3029086684       -1.4424567456
 H       -18.3852072245        5.6273933599        0.3204809594
 H       -19.5814997206        4.5629122463       -0.2286237897
 H       -14.0346194402        2.3215796697        0.8630366373
 H       -15.5631530223        2.5161580594        1.6003315039
 H       -14.6472256014        4.2905649116        2.8775324457
 H       -13.6314910381        4.7597227054        1.5429588288
 H       -11.6438523423        6.5910710366        1.4916061323
 H       -10.5971208513        5.8560477116        0.4764937347
 H        -8.6834292810        6.4974715275        2.3296266355
 H        -9.9690477125        7.6474778500        2.6703532022
 H        -5.0897448720        7.9383727299       -0.2044991124
 H        -6.5523398465        7.1209239120       -0.7596898103
 H        -4.9463080516        6.4459126993        1.7730773630
 H        -4.2826938226        5.6009638890        0.3014568861
 H        -4.3137641035        0.8120085185        0.9803170274
 H        -3.5647009119        2.2341180042        0.2116224301
 H        -5.0537664707       -0.0511475442       -1.1596534728
 H        -3.3858174896        0.4258844819       -1.2917905025
 H        -7.4798026870        2.0757169673       -5.5391057565
 H        -7.2451148603        3.1021582837       -4.1138366494
 H        -9.3553840493        1.0456725223       -4.4743727257
 H        -9.6075875015        2.7012267217       -4.8522457145
 H       -10.3373571457       -0.9001842263       -2.1764092897
 H       -11.8992962819       -0.6035947920       -1.4209058318
 H       -10.6431060842       -1.1273254859       -0.3302472020
 H       -11.0848799004        3.5743837517       -0.6990458976
 H       -12.5710576795        2.7684861933       -1.1867537531
 H       -11.7368541058        3.8845733439       -2.2332201886
 H       -12.6811045486        0.9594885506       -2.8445516983
 H       -11.3239291739        0.3273556390       -3.7781644183
 H       -12.1021031541        1.8599961188       -4.1660284392
 H        -3.6986530944        1.9940757811       -4.8994540286
 H        -4.9869404172        3.0928662931       -4.6397578552
 H        -5.2275375562        1.5557256318       -5.7271175284
 H        -4.8495919548       -0.6721481061       -4.7308778299
 H        -5.0046967961       -1.1131070369       -3.0789810345
 H        -3.5447030631       -0.2041470552       -3.7301853818
 H        -3.6199288250        3.6920040677        1.3995707843
 H        -4.0754810557        2.6941547321        2.8197194779
 H        -4.1533405897        4.5189677068        2.8949155396
 H        -6.3728719452        2.4562933765        3.4627964552
 H        -7.6436061741        2.7558441787        2.2611619265
 H        -7.1000964276        4.1295524610        3.2862976230
 H        -8.6224459777       10.0668405099       -0.9180104136
 H        -7.2059956393        9.0507501606       -1.1856698817
 H        -6.9241427813       10.4938579182       -0.1994577191
 H        -8.9819337504       10.4176568815        2.0365823469
 H        -7.2029696377       10.5672480126        2.0967980172
 H        -7.9464462528        9.4226806748        3.0112210165
 H       -11.7912284833        6.3232268661        4.3050288174
 H       -13.0557220826        5.3593849727        4.8867116039
 H       -13.0815235611        6.0978871850        3.2870707940
 H       -10.7434702975        2.5458677233        4.0543817200
 H       -11.7155744809        3.5064751249        5.2983479576
 H       -10.0103036502        3.9575628570        4.7995679798
 H       -15.5804579937        1.2843792025       -1.6113783653
 H       -17.3931460840        1.5631227256       -1.8425735703
 H       -16.6310990194        1.2794794306       -0.2302675775
 H       -16.0908444889        4.9837216768       -2.3916585709
 H       -17.4252078935        3.7946986117       -2.8151113057
 H       -15.7026229165        3.4987226557       -3.1483546038
 Na       -8.8101041641        3.2595093464        0.1331720719
