117

 C       -18.6396510968        4.9058423082       -0.4667744765
 C       -17.7055894439        3.7214681589       -0.0737281663
 O       -17.9224057701        3.0624392177        0.9417929542
 C       -16.4637112920        3.3645082405       -0.9137516500
 C       -15.0781743310        3.7568336136       -0.2059378007
 O       -14.3831747054        4.6951174663       -0.5408557263
 C       -14.8149627012        2.8840989419        0.9944102959
 C       -14.0420409127        3.8972081260        2.0067174229
 C       -12.8807858879        3.3118208484        2.7633156518
 O       -12.6559896754        2.1427741122        2.9426858062
 C       -11.8231864004        4.3925405668        3.4061913143
 C       -10.8091396538        4.6631393263        2.2154153639
 O       -10.1514712375        3.7057417179        1.8410131616
 C       -10.8359607157        6.0109259183        1.3824632235
 C        -9.7241903891        7.0021610178        1.9133750205
 C        -9.1612194834        7.8987359334        0.7023315129
 O        -9.5866131481        7.7375496709       -0.4518648988
 C        -7.9109613846        8.9307545136        0.8872925289
 C        -6.6264337432        8.0679962876        1.1964673751
 O        -6.3230420298        7.8999716436        2.3678039124
 C        -5.8071907815        7.2430714275        0.2048154157
 C        -5.1824366314        5.8763546223        0.7683982393
 C        -6.1943598486        4.8224320948        0.9868608738
 O        -7.3784775985        4.9821920519        0.6398183611
 C        -5.6459351754        3.4748957564        1.6582622273
 C        -5.7200745783        2.2442124324        0.6645870919
 O        -6.7217729609        1.8850522107        0.1572703973
 C        -4.3263293532        1.5873974168        0.3668430951
 C        -4.3782889715        0.8818188909       -0.9942684440
 C        -4.8203498093        1.7459640355       -2.1985799441
 O        -4.8972722910        2.9245061496       -2.1105716916
 C        -5.2575144221        1.0252351702       -3.6344621034
 C        -6.8652985589        0.8879288824       -3.6432441837
 O        -7.4465123743       -0.0827021533       -3.1834691599
 C        -7.5887704344        1.9717463435       -4.3909143571
 C        -9.1548668302        1.9764576815       -4.2687700023
 C        -9.5354880304        2.3731134245       -2.8044029888
 O        -8.7235172288        3.0812527622       -2.2484377287
 C       -10.8787292974        1.8818176554       -2.1788137776
 C       -10.4721706777        0.8699187340       -1.0706609838
 O        -9.8645447327        1.2368878643       -0.0716098174
 C       -10.7645676088       -0.6563004745       -1.3548340374
 C       -11.5860978741        3.1170657346       -1.5967191994
 C       -11.7378855168        1.3402334715       -3.2949237784
 C        -4.7584736146        2.0154202223       -4.6605209172
 C        -4.7061107030       -0.3802780700       -3.7797525895
 C        -4.2386790755        3.7422030908        2.2218935856
 C        -6.7087240861        3.1848337284        2.8818960418
 C        -7.7323081023        9.6484791460       -0.4665971175
 C        -8.0549677817        9.9996708581        1.9765389501
 C       -12.4009837213        5.6743002222        3.9769846191
 C       -10.9839868662        3.6497564804        4.4666568122
 C       -16.5971834017        1.8206189383       -1.0821831674
 C       -16.4583168672        3.9728762530       -2.3176702263
 H       -18.3328256480        5.2356994491       -1.4657141691
 H       -18.6561851516        5.7124244639        0.2856031965
 H       -19.6476329516        4.5127206331       -0.4708712289
 H       -14.3358985044        1.9526761997        0.8578096912
 H       -15.7906445103        2.6783193786        1.3386472371
 H       -14.8168853669        4.2945010207        2.6359665270
 H       -13.6484987978        4.6718374389        1.3927180002
 H       -11.7295136208        6.5686854786        1.3857993002
 H       -10.6025607810        5.8146391815        0.2854069667
 H        -8.9027601371        6.4459102264        2.3071608933
 H       -10.1083911019        7.6499186191        2.7647285220
 H        -4.9719562092        7.9409291252       -0.1404247246
 H        -6.4169531584        7.1223145509       -0.7017381484
 H        -4.5028560909        6.1161658004        1.5890976150
 H        -4.6157071296        5.3902336011       -0.0610965619
 H        -4.2081135036        0.7779666589        1.1055567028
 H        -3.4849917396        2.2337871793        0.3824609005
 H        -5.0182585641        0.0255260961       -1.0389846407
 H        -3.3864584660        0.4881922153       -1.3479805593
 H        -7.2678640215        1.9875379247       -5.4984736506
 H        -7.2594173034        2.8880367781       -3.9521122433
 H        -9.4826724304        0.9711814753       -4.5982521703
 H        -9.5337677749        2.7040798625       -5.0317658717
 H       -10.0913754343       -0.9931183644       -2.1346141026
 H       -11.8102971434       -0.8165441251       -1.6763052444
 H       -10.6209510975       -1.1298751984       -0.4036628632
 H       -11.3610817982        3.4746340281       -0.5651373483
 H       -12.6408675395        2.8796387513       -1.6124631637
 H       -11.3614987903        3.9253678010       -2.2641853201
 H       -12.6564169032        1.0248185958       -2.8078566243
 H       -11.3503949167        0.4624159447       -3.8770847922
 H       -12.0975211482        2.0971066168       -4.0188638207
 H        -3.6847890984        2.1578612149       -4.4953910215
 H        -5.1184688296        3.0753611754       -4.4023315356
 H        -4.9196300617        1.7011908298       -5.6935455403
 H        -5.0633051743       -0.8040475928       -4.7601333495
 H        -5.2194599250       -0.9911674199       -3.1108524638
 H        -3.6217992675       -0.4458274890       -3.6750321658
 H        -3.5244456233        3.9409125791        1.3047121732
 H        -3.8772425259        2.8388583006        2.7032396225
 H        -4.3111635705        4.6700243571        2.8330470369
 H        -6.2831581267        2.3737706659        3.4311724092
 H        -7.6793719133        2.9240023035        2.5063764189
 H        -6.7081398213        4.0552705297        3.5169729135
 H        -8.5986812562       10.3629851666       -0.5511510199
 H        -7.7953405842        8.9753426217       -1.3012516897
 H        -6.7385189011       10.1669347524       -0.5532943889
 H        -8.9986431120       10.5583008485        1.8390062245
 H        -7.2245141728       10.7054524193        1.9249407204
 H        -8.0521384397        9.7015442162        2.9886961146
 H       -11.6746719843        6.4419750345        4.1054478561
 H       -12.7637902498        5.5500269051        5.0157966870
 H       -13.1963532898        6.1913633362        3.4614337823
 H       -10.4902973132        2.7298105437        4.1200518365
 H       -11.5782674170        3.5374014620        5.4157484026
 H       -10.1971924258        4.3439187436        4.6574170219
 H       -15.6460018576        1.3627080242       -1.2768181356
 H       -17.2956109816        1.7598900711       -1.9198512249
 H       -17.0479861701        1.4062492465       -0.1343175589
 H       -16.6123644196        5.0584509528       -2.2497799513
 H       -17.3447602126        3.5012996034       -2.7707831008
 H       -15.5635705358        3.8871744476       -2.9693556729
 Na       -8.7139445035        3.3624415668        0.0660714606
