117

 C       -18.8840898993        4.6896354864       -0.4874042689
 C       -17.8150954025        3.8834221446        0.1547065608
 O       -17.8484809621        3.5080345736        1.3026487453
 C       -16.5781120847        3.4378137232       -0.9090995756
 C       -15.3189640431        3.9020365714       -0.1909787585
 O       -14.6413162934        4.8309362657       -0.5451355894
 C       -14.9782471069        3.1865791812        1.1449234900
 C       -14.1796746300        4.2551018513        2.1099327358
 C       -13.0110586826        3.6497906912        2.9130130705
 O       -12.9483574244        2.4888184602        3.2345224617
 C       -11.8367035398        4.6764460897        3.3563248648
 C       -10.9248003122        4.8311588148        2.1256800234
 O       -10.1082399733        3.9348118339        1.8983277992
 C       -10.9618378882        6.1126208956        1.2301233691
 C        -9.6943018374        6.9942819493        1.6566168909
 C        -9.1195121831        7.6594961976        0.4367813183
 O        -9.4160505625        7.3697612864       -0.6800688231
 C        -7.9863396483        8.7113172146        0.7087622827
 C        -6.7788264705        7.9234142869        1.1880547331
 O        -6.6253307304        7.6035109373        2.3435801432
 C        -5.8724945520        7.3231026406        0.1175708151
 C        -5.0200786568        6.1240273125        0.6961352084
 C        -5.8254904636        4.8596104130        0.7532947659
 O        -7.0158885984        4.8460453968        0.3503995744
 C        -5.3944718317        3.5936162883        1.6838471366
 C        -5.4922650240        2.4124254853        0.6950851109
 O        -6.5606039058        2.1111612303        0.1787763255
 C        -4.3264348908        1.4966652842        0.3921808586
 C        -4.7537982933        0.5920880529       -0.8532386840
 C        -4.9851772769        1.5102226876       -2.0765630543
 O        -4.9408286372        2.7041344214       -2.0451149610
 C        -5.1965516037        0.8063558611       -3.4572636813
 C        -6.6803743661        0.6914370650       -3.6900923781
 O        -7.2785475565       -0.1727148416       -2.9941180162
 C        -7.5011381004        1.5971252161       -4.5354647847
 C        -9.0045225550        1.5894376633       -4.2865368354
 C        -9.3863281983        2.1740777568       -2.9118294558
 O        -8.6039979297        2.9423307174       -2.3991281861
 C       -10.7868016430        1.9114108447       -2.2308509631
 C       -10.4319567721        0.8700712418       -1.1020001799
 O       -10.0034907181        1.1524580901        0.0365411849
 C       -10.4153704740       -0.6377963788       -1.5333849434
 C       -11.4162301577        3.1796074508       -1.6563206304
 C       -11.8899901236        1.3471863835       -3.2606087595
 C        -4.4433795897        1.6164893889       -4.5529563659
 C        -4.5559856699       -0.6191885177       -3.5142540128
 C        -3.9314140534        3.8777022627        2.2315708640
 C        -6.4272540932        3.5267823403        2.8288934187
 C        -7.7691640938        9.6200625462       -0.5477340008
 C        -8.4303924728        9.6788453912        1.8663331374
 C       -12.4847119515        6.0549562669        3.9046757462
 C       -11.0264923231        4.0463791417        4.5339230905
 C       -16.7570306336        1.9339847274       -0.9644277495
 C       -16.8199234325        4.0668573306       -2.3096031018
 H       -18.5429486737        5.4172097297       -1.1940209724
 H       -19.5241744753        5.2094082090        0.2991955548
 H       -19.4474632559        3.8630964863       -0.8456796738
 H       -14.4116789771        2.2836484780        1.1002724814
 H       -15.8940692494        2.8819733506        1.5832324580
 H       -14.9109634828        4.6909590868        2.7837195947
 H       -13.7906156162        4.9875462906        1.4336968687
 H       -11.7658135902        6.7001732234        1.3855011054
 H       -10.8684387393        5.7863265070        0.2161154922
 H        -8.9904026005        6.3061387816        2.0541887214
 H        -9.9437076339        7.7527481652        2.4696288991
 H        -5.2344506879        8.2244416033       -0.1866931367
 H        -6.3976636177        7.0681762330       -0.8189857371
 H        -4.7595460090        6.2914948649        1.7520069093
 H        -4.1262986542        5.9411950994        0.0255794009
 H        -4.2092957509        0.8271354704        1.2706382337
 H        -3.4089012964        2.0162968623        0.2130008709
 H        -5.6911669481        0.0680865746       -0.7078937523
 H        -3.9943657411       -0.1223747620       -1.2421309353
 H        -7.2782336158        1.3543653954       -5.6195261514
 H        -7.1118584128        2.5658902914       -4.3379458987
 H        -9.2365760912        0.5563710447       -4.3422836610
 H        -9.4944882415        2.0433214684       -5.1372241048
 H        -9.7113858581       -0.7963373913       -2.3399112301
 H       -11.4089451681       -0.8408086545       -1.9833137367
 H       -10.1587301584       -1.1377414230       -0.6581481398
 H       -11.1734995940        3.3729625817       -0.6652205303
 H       -12.4868178184        3.2376654131       -1.7428697999
 H       -11.0253879449        3.9868591800       -2.2776615417
 H       -12.7051530711        1.0213125582       -2.6840811085
 H       -11.6442954642        0.5144626935       -3.9330179867
 H       -12.2447086351        2.0514859247       -3.9783818622
 H        -3.4013153203        1.3345338645       -4.4121880129
 H        -4.6749502727        2.7193332266       -4.4212957742
 H        -4.7489330830        1.4432624854       -5.6028135493
 H        -4.6379499470       -1.0678124211       -4.5459641426
 H        -5.0723281895       -1.2741202195       -2.9253361245
 H        -3.5354589620       -0.5740083386       -3.1730268811
 H        -3.1521154463        3.9301976390        1.4793085289
 H        -3.5073268067        3.1781999981        2.9372298699
 H        -4.0406605189        4.9387104513        2.6300724596
 H        -6.2472788354        2.6708897453        3.4743515721
 H        -7.4103592565        3.5132283016        2.3153097806
 H        -6.3252570244        4.4200856803        3.4710626664
 H        -8.5962783150       10.3425836736       -0.6045068414
 H        -7.4659420188        9.0636942212       -1.4501035162
 H        -6.8516998930       10.2154345618       -0.4255846495
 H        -9.4697411048       10.0435642709        1.8138562842
 H        -7.8385937658       10.6081631726        1.7980576999
 H        -8.4034825507        9.2331892059        2.8461394944
 H       -11.7453419268        6.6901808630        4.4286321773
 H       -13.2539200682        5.8453957831        4.6829985568
 H       -13.0257918563        6.6727111005        3.1634129360
 H       -10.5707291570        3.0974210273        4.1686685947
 H       -11.7611635942        3.7205806841        5.3092359793
 H       -10.3636252132        4.7934910027        4.9779196266
 H       -16.0963497658        1.6349274518       -1.7205453563
 H       -17.7346513351        1.6372261804       -1.3199710804
 H       -16.6269075491        1.5230557460        0.0582559656
 H       -16.6805910158        5.1343137914       -2.2214078966
 H       -17.7968763280        3.8719759297       -2.7277813662
 H       -16.0843521976        3.6300147226       -2.9904700865
 Na       -8.6961200175        3.1301665896        0.0831249741
