117

 C       -19.2516846661        4.6657797915       -0.3656791212
 C       -18.0452753246        3.9987135630        0.2769950566
 O       -17.9696026882        3.9097289726        1.4844095345
 C       -16.8171238721        3.4941616994       -0.6426683101
 C       -15.4061136252        4.0615761192       -0.1243323888
 O       -14.7909762420        4.8472607577       -0.7848504780
 C       -14.9043402084        3.5013029267        1.1943796930
 C       -14.1684853558        4.5598440009        1.9763833105
 C       -13.0578342047        3.9698758245        2.8678024293
 O       -13.2607918253        2.8488842250        3.2528251034
 C       -11.8153194816        4.7856054376        3.3499627444
 C       -10.8342720365        4.7952546793        2.1819230936
 O       -10.1478393290        3.7856663875        1.9445406979
 C       -10.9569106352        5.9151065208        1.1446630508
 C        -9.8420454550        6.9556660772        1.3963901984
 C        -9.1147154852        7.6013544427        0.1635583571
 O        -9.3003637123        7.2991319939       -0.9811974732
 C        -8.0167511725        8.6673256212        0.6129274484
 C        -6.8818502885        7.7931279992        1.0632630630
 O        -6.8647123976        7.3336450991        2.1828684323
 C        -5.6573034815        7.4599933355        0.1426562300
 C        -4.8500335100        6.2570615397        0.5895451460
 C        -5.8326519621        5.0378426328        0.7451580987
 O        -6.9781060783        5.0253484080        0.2734646108
 C        -5.3857535848        3.7437035520        1.5233464658
 C        -5.7748052982        2.3823857724        0.8837088932
 O        -6.9386642318        2.0249181592        0.6821825156
 C        -4.5206845757        1.4909580089        0.4312139665
 C        -4.6222747504        0.5104704112       -0.7639634666
 C        -4.8287510080        1.3170053731       -2.1291163212
 O        -4.7454851134        2.5100268127       -2.1417915909
 C        -5.0682896188        0.5235977702       -3.4662112341
 C        -6.6069064762        0.5274268162       -3.4649849504
 O        -7.1978987404       -0.2640141858       -2.7327562693
 C        -7.2878277841        1.5762504541       -4.3594011772
 C        -8.8390175047        1.5857384320       -4.1976786056
 C        -9.2428968754        2.1758110139       -2.8490874919
 O        -8.4629295920        2.8003678736       -2.1174095913
 C       -10.6865136325        1.7941872035       -2.2954288829
 C       -10.3323248893        0.7675679201       -1.1712443164
 O        -9.8276078075        1.2095470035       -0.1514802663
 C       -10.4597549927       -0.7670074740       -1.5056971978
 C       -11.3969931985        3.0536764985       -1.7502158983
 C       -11.6210905431        1.3287661688       -3.4777083378
 C        -4.5948270601        1.2921999387       -4.7202376654
 C        -4.4533887518       -0.9047910032       -3.4634017097
 C        -3.8865868541        3.8485081330        1.8491058129
 C        -6.2225094884        3.6870971570        2.8162271621
 C        -7.6833985610        9.6588282383       -0.6612054857
 C        -8.5024082239        9.5069250407        1.8134611570
 C       -12.3463200785        6.2188116159        3.7855572518
 C       -11.1924381543        4.0667047267        4.5810954058
 C       -16.7002648112        1.9610647454       -0.6873773912
 C       -16.8336295715        3.8930822667       -2.1287639225
 H       -19.6188366926        5.4524840929        0.2813464561
 H       -20.0649158463        3.9283465335       -0.5015455071
 H       -18.9477684227        4.8784923006       -1.3615406821
 H       -14.2542866239        2.5604001253        1.0584569749
 H       -15.7613027406        3.0838324770        1.8053273755
 H       -14.9423702614        5.1252026210        2.5577517581
 H       -13.7792583819        5.2404598621        1.1546031724
 H       -11.9139652696        6.3865754123        1.0914102513
 H       -10.5429412353        5.4541453093        0.2072668204
 H        -9.0421680979        6.4080957161        1.9696122147
 H       -10.2265736288        7.7590938013        1.9994087839
 H        -4.9533379153        8.2357611939       -0.0427035990
 H        -6.1519470335        7.2915660267       -0.7794183377
 H        -4.4579187708        6.5167204710        1.5823009406
 H        -4.0934238579        6.0332629951       -0.1320596664
 H        -4.0447325260        0.8774059192        1.2284105798
 H        -3.7422915849        2.1651488218        0.0542086398
 H        -5.4293542063       -0.1725983135       -0.7514967748
 H        -3.6337753134       -0.0019820268       -0.8515140170
 H        -6.8660675111        1.3202620999       -5.3532422996
 H        -6.8665990456        2.5047054758       -4.0616311733
 H        -9.0836088389        0.5099579931       -4.2839877499
 H        -9.3931063145        2.0739447214       -4.9903557562
 H        -9.7797021710       -0.9897087051       -2.3620300407
 H       -11.4955254044       -1.0213859030       -1.8057489979
 H       -10.0341127886       -1.1513552530       -0.6079511568
 H       -10.7758595341        3.6532983309       -1.0937587698
 H       -12.2168095846        2.6677890622       -1.0973288398
 H       -11.9702563863        3.6646297086       -2.4666003977
 H       -12.6973078536        1.3450405575       -3.2860600326
 H       -11.5248754516        0.3162388832       -3.8786208252
 H       -11.4452243226        1.9413802492       -4.3913572999
 H        -3.5749118736        1.1919875639       -4.8596755887
 H        -4.9842335287        2.2961431199       -4.9000553640
 H        -5.0102298675        0.7495191812       -5.5003303346
 H        -4.5935459421       -1.4142972697       -4.4767695140
 H        -4.7342649400       -1.5203293955       -2.6664254725
 H        -3.3325310071       -0.7873574067       -3.3958826733
 H        -3.4052241326        4.0213142564        0.8619513630
 H        -3.4551957768        2.9996819819        2.3024503101
 H        -3.5690513196        4.6323763495        2.5537658159
 H        -5.7585630487        3.0050768643        3.5208987041
 H        -7.1833520857        3.3467475177        2.4857607105
 H        -6.3068324468        4.6648082589        3.2555916984
 H        -8.4861132581        9.6990593157       -1.4138473501
 H        -6.7623638178        9.4464207935       -1.0914480254
 H        -7.6034925355       10.7056310112       -0.3841070704
 H        -9.4519601022       10.0276779273        1.5502007217
 H        -7.8261819707       10.3295941806        2.0050271400
 H        -8.7279149535        8.9459284445        2.6737878664
 H       -11.4880180178        6.8360222573        3.7922996872
 H       -12.8782114028        6.2829097978        4.7887618762
 H       -13.0347513930        6.5847652897        3.0220066825
 H       -11.3127528851        3.0096740159        4.4514279206
 H       -11.7626539228        4.3488670920        5.4759673539
 H       -10.2502275490        4.4469545071        4.7108889494
 H       -15.8353542872        1.5977133218       -1.2130101774
 H       -17.5759965324        1.6844602299       -1.2915706074
 H       -16.9958481641        1.5596580285        0.3148694747
 H       -17.0487602517        4.9501749045       -2.1474918959
 H       -17.6626501413        3.4480341553       -2.6791590605
 H       -15.8768622845        3.6252050587       -2.5818027128
 Na       -8.7482134167        3.4330144833        0.3057033807
