117

 C       -19.3635886457        4.6080067062       -0.4050216905
 C       -18.0468469754        4.0190784051        0.2479512924
 O       -17.9262519832        4.0699111041        1.4698080338
 C       -16.9490555771        3.5049608724       -0.6671259621
 C       -15.5530732703        4.1269520099       -0.1679515615
 O       -14.9222483688        4.9200549348       -0.8788760496
 C       -15.0967069973        3.7219877354        1.2977672054
 C       -14.1194564787        4.7636922490        1.9713623611
 C       -13.2306965965        4.1264962393        2.9708315962
 O       -13.3392019849        2.9894505076        3.3741534142
 C       -11.8471593556        4.9335788014        3.3278321457
 C       -10.8766592700        4.7100786293        2.1251762542
 O       -10.1263615454        3.7516148680        2.0732921907
 C       -10.7293914266        5.6935571458        0.9522787681
 C        -9.9093249750        6.9462116282        1.3982218542
 C        -9.1932893211        7.5510198325        0.2311298077
 O        -9.3881623147        7.2533806054       -0.9351112669
 C        -8.0239187202        8.6505514333        0.5089944395
 C        -6.8591690967        7.6766036322        0.9643908630
 O        -6.9055404652        7.2043529028        2.1019941105
 C        -5.7170839647        7.4317368946        0.0386990699
 C        -4.9347135753        6.2104781269        0.5015862669
 C        -5.9369013920        4.9909711438        0.6118867620
 O        -7.0799548590        5.0111478025        0.2262659314
 C        -5.3403342759        3.8577503422        1.4835880566
 C        -5.6099170932        2.3883412735        0.8131918597
 O        -6.7597747349        1.9755102768        0.7744644533
 C        -4.5072316072        1.4886537908        0.3954509747
 C        -4.9997558477        0.6110111847       -0.7741262257
 C        -4.6984486482        1.2310158009       -2.1610427266
 O        -4.4164603114        2.4069693363       -2.2600656150
 C        -4.9480035025        0.3292705494       -3.4980023328
 C        -6.5481179928        0.4465860301       -3.4629956112
 O        -7.1976732733       -0.2784510522       -2.7786644404
 C        -7.2100374885        1.6579428231       -4.2560182112
 C        -8.6994588157        1.6415013461       -4.1019916362
 C        -9.1900292154        2.2155327459       -2.7749245720
 O        -8.4604285314        2.8748915422       -2.0760554900
 C       -10.6898185531        1.7389224781       -2.3081865273
 C       -10.3595063350        0.7886650837       -1.1273896259
 O        -9.7613620851        1.2386855965       -0.1600707768
 C       -10.5861004018       -0.6846108489       -1.2929790637
 C       -11.3977375854        3.0076449616       -1.6975602498
 C       -11.4712271063        1.0971577825       -3.4272705458
 C        -4.2306544299        1.0139458333       -4.6104033012
 C        -4.5059974122       -1.0792022984       -3.2485709340
 C        -3.8856645704        3.9193671474        1.8442241996
 C        -6.1675932971        3.9036640835        2.8803224922
 C        -7.6104889063        9.5293477716       -0.7089691076
 C        -8.5459651032        9.5913183079        1.6446673353
 C       -12.0452783723        6.4111822960        3.5958563820
 C       -11.2069458877        4.1873953062        4.5472304427
 C       -16.8511300815        1.9975684944       -0.3338273292
 C       -17.2327884356        3.8730717888       -2.1831386900
 H       -20.1273905436        4.4622236835        0.3626670467
 H       -19.6998080117        4.2135048669       -1.3168668634
 H       -19.1697240488        5.7020354494       -0.6069047918
 H       -14.6459930267        2.7613784688        1.1911975459
 H       -15.8731007172        3.5298853483        2.0179946879
 H       -14.6834289268        5.5673044402        2.4463284324
 H       -13.5194885426        5.2294578825        1.1946420460
 H       -11.7020809428        6.0734190391        0.5819251149
 H       -10.1907512098        5.3307187393        0.1480764364
 H        -9.0560490366        6.6257156586        1.9756678494
 H       -10.5255823379        7.6423824217        1.9848044324
 H        -5.1512306231        8.4026990531        0.1185638888
 H        -6.0631863522        7.2681874669       -1.0327778835
 H        -4.4063891607        6.3714669224        1.4603776083
 H        -4.2693128969        5.9058578839       -0.3491407031
 H        -4.2805400579        0.8326570779        1.2304455253
 H        -3.5724164102        2.0291642508        0.1736985050
 H        -6.1311776897        0.5206060996       -0.6973706261
 H        -4.4877852278       -0.3326879656       -0.8095399954
 H        -6.9033855137        1.6409508517       -5.2708398517
 H        -6.8965631951        2.6496340235       -3.8442305153
 H        -9.0718574604        0.6631953670       -4.2965913524
 H        -9.0308670030        2.2005573356       -4.9817542697
 H        -9.9179350018       -0.9142932872       -2.1074579557
 H       -11.5807323852       -0.7780743095       -1.6650333663
 H       -10.3035098252       -1.2133246896       -0.3510500255
 H       -10.6244179340        3.7058099377       -1.2895458084
 H       -12.1139778510        2.8370166732       -0.9592076790
 H       -11.9293366055        3.4994258327       -2.4467218243
 H       -12.4443233068        0.7784244347       -3.0432618960
 H       -11.0692146585        0.1496484463       -3.7195085817
 H       -11.7235301164        1.6347772489       -4.3136616884
 H        -3.1324440118        0.7427525060       -4.5375685221
 H        -4.2908369116        2.0726683702       -4.4402846938
 H        -4.5210801808        0.8152613604       -5.6812701614
 H        -4.6708279813       -1.5991334112       -4.1162666173
 H        -5.0666455977       -1.5247263840       -2.3654401360
 H        -3.4747687176       -1.2151807991       -3.0656721319
 H        -3.2245108428        4.0374045123        0.9644437032
 H        -3.7137618020        3.0681004879        2.5251427976
 H        -3.5512698097        4.6040782197        2.5732476773
 H        -5.9200506408        2.9149533947        3.3190067268
 H        -7.2542891122        4.0244436743        2.7408143124
 H        -5.7381963242        4.7013731866        3.5151100890
 H        -8.3482933419        9.5180964123       -1.5317967621
 H        -6.6463564641        9.3177529146       -1.2293299968
 H        -7.5907072782       10.5943912086       -0.3929848735
 H        -9.4974211894       10.0413824751        1.3816489548
 H        -7.8626298801       10.4319446006        1.8749084235
 H        -8.7447170351        9.0348844483        2.6075221752
 H       -11.1365379221        6.7959366834        4.1586919444
 H       -12.9232835111        6.4639045659        4.2105523189
 H       -12.2101385061        7.0413540419        2.6906044325
 H       -11.0620467312        3.1389506749        4.2700766483
 H       -11.8358846391        4.2768694202        5.4162757218
 H       -10.2659337659        4.7858955968        4.7302958278
 H       -15.8622665754        1.6372210327       -0.7342484567
 H       -17.6949542111        1.4158193718       -0.7031342579
 H       -16.9128290672        1.9115769602        0.7261592932
 H       -17.2879299328        4.9358735740       -2.3757095912
 H       -18.2314114212        3.5181398132       -2.3406693374
 H       -16.5831879808        3.3576144231       -2.8579786088
 Na       -8.6805678157        3.2883716969        0.1676303577
