117

 C       -19.5248697766        4.6699535430       -0.4419501050
 C       -18.2716348034        4.1959172036        0.3499374388
 O       -18.1621936103        4.2428856125        1.5531720414
 C       -17.0697099233        3.5535034161       -0.4714807811
 C       -15.7799193474        4.2134645722       -0.0256476483
 O       -15.1705559456        5.0036899902       -0.7661301662
 C       -15.2206122597        4.0058933465        1.3408709162
 C       -14.0257321088        4.8570970829        1.6513371451
 C       -13.2056139316        4.2732249273        2.7608706211
 O       -13.5663177546        3.3154890765        3.4062058880
 C       -11.8403125907        4.9718178190        3.2075117772
 C       -10.7520004759        4.7520528073        2.0101783167
 O       -10.0597670113        3.7530062059        2.0462423507
 C       -10.6173708715        5.7867831632        0.9118912929
 C        -9.8011437381        7.0113593937        1.3441255795
 C        -9.2275884652        7.6396820715        0.0780467706
 O        -9.4962200136        7.2670861654       -1.0348648989
 C        -8.1126606481        8.6472794578        0.2749139567
 C        -6.8830328670        7.7516493704        0.7962444424
 O        -6.7912651116        7.4157554241        1.9784733388
 C        -5.8678526745        7.2051783762       -0.3165894596
 C        -4.9594099860        6.1671337533        0.3596873569
 C        -5.8021781330        4.8862526267        0.6582241070
 O        -6.8705938166        4.7749873388        0.0593899941
 C        -5.2987190419        3.7913474858        1.6257778284
 C        -5.6041165118        2.4013892027        0.8826649839
 O        -6.7350405628        2.0504105687        0.8217416373
 C        -4.4481178758        1.5261757266        0.4515419409
 C        -4.8340597385        0.5478010231       -0.6059697950
 C        -4.5258649153        1.1067701831       -2.0756450352
 O        -3.8777991199        2.1176179566       -2.1746963717
 C        -4.9277569915        0.2273713971       -3.3042588022
 C        -6.5151020736        0.4880451319       -3.5694391648
 O        -7.3365751426       -0.3205141369       -3.1330856097
 C        -7.0435216418        1.8053837757       -4.2745440733
 C        -8.5915459100        1.7846561912       -4.2401120097
 C        -9.0741510954        2.1538916534       -2.8278284207
 O        -8.5028422635        3.0249174176       -2.2261331330
 C       -10.4766365029        1.6258207203       -2.2851650373
 C       -10.3454411358        0.6820508688       -0.9280268543
 O        -9.8319982712        1.1996883277        0.0440731339
 C       -10.7469777245       -0.7780358448       -0.9663696937
 C       -11.2467629182        2.8718964030       -1.8125085618
 C       -11.2531976997        0.8896282772       -3.3422672627
 C        -4.1195120960        0.5755388124       -4.5795887334
 C        -4.6703924525       -1.2290613947       -3.0180990748
 C        -3.8686166836        3.9599555969        2.0700827165
 C        -6.1025106412        3.8697310279        2.9604373415
 C        -7.8998270878        9.6528628789       -0.9045446393
 C        -8.4288751935        9.5593175822        1.5646171877
 C       -12.0964379871        6.5067357979        3.4243035821
 C       -11.2540746715        4.2910871040        4.5350694601
 C       -17.1260482151        2.0187691292       -0.0606791122
 C       -17.2421438442        3.7042699167       -1.9772604809
 H       -20.3558340505        4.1741511112        0.0525839451
 H       -19.5362654896        4.4290482058       -1.5063957693
 H       -19.5862722622        5.7371737507       -0.2695012714
 H       -14.9493256497        2.9092788354        1.5587758547
 H       -15.9782115507        4.2215062655        2.1442043528
 H       -14.1701584507        5.9562966748        1.8886593573
 H       -13.4319978572        4.9135322892        0.7014246046
 H       -11.5236076781        5.9870026815        0.3472777296
 H        -9.9526059502        5.3477576384        0.2225908981
 H        -9.0157332531        6.6575461472        1.9804384425
 H       -10.4747146690        7.7300307734        1.9652367546
 H        -5.2589385554        8.0390061113       -0.6212135861
 H        -6.3361967074        6.7681744701       -1.1510341125
 H        -4.5074118602        6.5468590933        1.2386988246
 H        -4.1700897364        5.8749889534       -0.3734705515
 H        -4.0319613845        0.9785904026        1.3379891730
 H        -3.5880411848        2.0967042388        0.1380318558
 H        -5.8695093453        0.2751186953       -0.4708801932
 H        -4.1488145687       -0.3022775216       -0.5865426873
 H        -6.6981268289        1.8370356411       -5.3320441791
 H        -6.6798069005        2.6870573720       -3.7848422128
 H        -8.9376462184        0.9115823353       -4.7157754937
 H        -8.8435714765        2.5615379815       -4.9914157206
 H       -10.2349903217       -1.1479415105       -1.8346936434
 H       -11.8541315268       -0.7836277250       -1.0363462572
 H       -10.4102197170       -1.2429494421       -0.0072277260
 H       -10.8698057252        3.3469036402       -0.8910898528
 H       -12.3353299729        2.6814766608       -1.6821729773
 H       -11.1718912756        3.6521579649       -2.6130090853
 H       -12.3281928525        0.8177771137       -3.1877297166
 H       -10.8452318038       -0.1133184788       -3.6611115184
 H       -11.2859439378        1.4873005673       -4.2572983194
 H        -3.0535576242        0.6108098128       -4.5226743014
 H        -4.3642859985        1.5476673421       -4.8236521339
 H        -4.4086125415       -0.0623837279       -5.3970529809
 H        -4.5555748708       -1.8530796611       -3.8988523200
 H        -5.4777124419       -1.6445202566       -2.3094820717
 H        -3.7483149675       -1.3642113098       -2.4400861000
 H        -3.1172701565        4.1282227402        1.3492498923
 H        -3.5701623769        3.2188193755        2.8632866029
 H        -3.7543540540        4.8515621647        2.7000717572
 H        -5.5322801909        3.3821549870        3.6994703062
 H        -7.0593166530        3.3616941110        2.8714572026
 H        -6.2484664974        4.9150020685        3.1538221166
 H        -8.7503292655       10.0900928539       -1.3123061582
 H        -7.4328616329        9.2707901193       -1.8554961162
 H        -7.3308283873       10.3930597905       -0.4451875722
 H        -9.3696795331       10.0320417527        1.4430978519
 H        -7.6558978772       10.3111051146        1.6858444441
 H        -8.3619584515        9.0660422197        2.5509866420
 H       -11.1256919938        6.9660691289        3.6824796594
 H       -12.7865839054        6.5505608139        4.2041076412
 H       -12.4217166143        6.9825091554        2.4970418863
 H       -10.8983949271        3.3420776897        4.1880063944
 H       -12.0565403310        4.1839012223        5.1803490525
 H       -10.4340959046        4.8773996168        4.9781223468
 H       -16.3357779661        1.4468605838       -0.5659212828
 H       -18.1371482669        1.6643550733       -0.3178243352
 H       -16.9183855577        1.8505146932        1.0034359318
 H       -17.3019804907        4.7850058758       -2.2124458308
 H       -17.9433148467        3.0266014982       -2.4743875887
 H       -16.2233920899        3.4667460761       -2.3553189905
 Na       -8.7443433229        3.1610924099        0.3450135687
