117

 C       -19.8095873001        4.8975118859       -0.3468666252
 C       -18.5389156827        4.3547523682        0.3531578478
 O       -18.4761527359        4.4553589701        1.5544377877
 C       -17.3272990130        3.5806871451       -0.3507304436
 C       -16.0168697005        4.3971631778        0.0260626309
 O       -15.4739156657        5.0445860703       -0.8630896504
 C       -15.3921989462        4.1933482622        1.4304875818
 C       -13.9231928541        4.7099106050        1.5292626352
 C       -13.1775162610        4.2619188732        2.8079535255
 O       -13.6241116436        3.4063748818        3.5152454184
 C       -11.7742331186        5.0438229346        3.2379018259
 C       -10.8248664392        4.9133514175        2.1098752814
 O       -10.1190468072        3.9141525979        2.0071900024
 C       -10.7936884067        5.9234005591        0.8744468300
 C        -9.7060003729        7.0277476144        1.0640429662
 C        -9.1554408190        7.7715286554       -0.1270858232
 O        -9.4923778498        7.5037208520       -1.2545563169
 C        -7.9441392506        8.7057425711        0.1912849320
 C        -6.7739465253        7.8399181835        0.6745064885
 O        -6.5440480808        7.7113035543        1.8557425356
 C        -5.9026340801        7.1164232296       -0.3748860532
 C        -5.0376469154        5.9606052681        0.0578570239
 C        -5.8506698058        4.8017154674        0.5255515695
 O        -7.0101415681        4.7805560837        0.1217661719
 C        -5.3099512486        3.7832889750        1.5554831701
 C        -5.5084662046        2.3807803826        0.9288660911
 O        -6.5677260924        1.8186620457        0.8650739975
 C        -4.2094690295        1.6352419814        0.4729488309
 C        -4.5907518687        0.4941048414       -0.4898801453
 C        -4.3027217503        0.9111984662       -1.9609139409
 O        -3.6167224415        1.8730824317       -2.2003108647
 C        -5.0111110733        0.0379628549       -3.1447272918
 C        -6.4883570345        0.4269907429       -3.3883115984
 O        -7.3643064479       -0.4416440631       -3.0986912167
 C        -6.8633654205        1.7717336317       -3.9891092050
 C        -8.3742117553        1.9689539362       -4.0631645452
 C        -8.9880650655        2.0618884148       -2.6809211939
 O        -8.3001544543        2.6647153217       -1.8994638454
 C       -10.4460630905        1.5177386854       -2.2890429301
 C       -10.2377155853        0.7033219022       -1.0053210974
 O        -9.6952601107        1.1344166492       -0.0089132102
 C       -10.7534003630       -0.7553373604       -0.9801199882
 C       -11.4687554269        2.6659587839       -2.0863611079
 C       -11.0123923641        0.7199629783       -3.4893477631
 C        -4.2627608026        0.4254504826       -4.3878635975
 C        -4.9370558610       -1.4485870467       -2.9665869587
 C        -3.8679424932        4.1904502907        2.0778840464
 C        -6.2674837643        3.9308720967        2.7921314335
 C        -7.6985328107        9.5513330620       -1.1379065513
 C        -8.3006387254        9.7617177351        1.2742547991
 C       -12.2940335621        6.5040196563        3.5651265843
 C       -11.3083016974        4.4564056157        4.6444473852
 C       -17.2472674051        2.1068279181        0.1505595619
 C       -17.3455669769        3.4194677833       -1.8969868531
 H       -20.7318163672        4.7245808214        0.2349841565
 H       -19.8567850150        4.3219272677       -1.3203083536
 H       -19.6769562588        5.9551770244       -0.4245653739
 H       -15.4290268267        3.1596773717        1.6728176646
 H       -15.9834967328        4.6863841153        2.1453180403
 H       -13.8603086304        5.7486764586        1.3230370761
 H       -13.3361316383        4.3004384220        0.7381123385
 H       -11.8151431289        6.3843588259        0.6174443374
 H       -10.6307029617        5.2739013616       -0.0743791454
 H        -8.9242041225        6.5141412152        1.5669372919
 H       -10.0746320365        7.6913425817        1.8808039266
 H        -5.1220323562        7.8000755605       -0.7963373854
 H        -6.6022404336        6.8464097552       -1.1935577236
 H        -4.3666919000        6.3462874562        0.8335122422
 H        -4.3731053195        5.6466819691       -0.7641086296
 H        -3.6730756591        1.1686026696        1.3346949648
 H        -3.4039199567        2.2076173238        0.0391813637
 H        -5.6201215250        0.1997222436       -0.4237205283
 H        -3.8855340100       -0.3497017591       -0.2651230588
 H        -6.3490092844        1.7314945479       -5.0069310317
 H        -6.3917114048        2.5388739202       -3.3921976194
 H        -8.7510169940        1.3012067592       -4.8771445815
 H        -8.6349470615        2.9839777851       -4.4829685088
 H       -10.1442581351       -1.2586681069       -1.6939660758
 H       -11.8399334035       -0.7387489417       -1.1660865366
 H       -10.6008716352       -1.1871617789       -0.0215242061
 H       -11.1661362427        3.2616698855       -1.2996632589
 H       -12.3518374420        2.1605559506       -1.7030102558
 H       -11.6581963850        3.3299663234       -2.9395335425
 H       -11.8950369170        0.2023490715       -3.2117108666
 H       -10.2700157300        0.0413021684       -3.9499659242
 H       -11.3138293972        1.3565653286       -4.3021115390
 H        -3.2102732961        0.1059430807       -4.5125648517
 H        -4.1324181203        1.5262274813       -4.4283982221
 H        -4.8237130369        0.0388744203       -5.2833628520
 H        -5.5640403056       -1.9459961699       -3.7169108516
 H        -5.3738027704       -1.8084685226       -2.0437505248
 H        -3.9421779820       -1.8072770609       -3.0220501273
 H        -3.1221902124        4.3197581451        1.3603951338
 H        -3.4113519656        3.3469289424        2.7046512648
 H        -3.8623638273        5.1869205049        2.6145699613
 H        -6.0880335160        3.0973304435        3.4676661878
 H        -7.3095856977        3.8025753970        2.4141588532
 H        -6.1167245615        4.9324192614        3.2349864796
 H        -7.9507098373       10.5833124719       -0.9357424271
 H        -8.5255554866        9.3176223035       -1.9347094517
 H        -6.7075039813        9.5340247944       -1.5696797996
 H        -9.2647422124       10.2165572982        1.0386094596
 H        -7.5004365430       10.5185579468        1.3100489371
 H        -8.2504076899        9.3254060208        2.2862274707
 H       -11.3692758931        6.9958072699        3.8699203575
 H       -12.9350861823        6.4069996545        4.4332407635
 H       -12.7225631618        6.9679152370        2.6555490789
 H       -11.2167446520        3.3586028810        4.5031511380
 H       -12.0305135762        4.7961134308        5.3757646452
 H       -10.2716182153        4.8042198706        4.7958391119
 H       -16.3192237541        1.6182894095        0.0458959939
 H       -17.9826981703        1.5744316342       -0.4646373448
 H       -17.4918921766        1.9983477244        1.2340136122
 H       -17.2491481642        4.3793885345       -2.3437215094
 H       -18.2207060946        2.8697704611       -2.1329613970
 H       -16.5277458760        2.8531391746       -2.3035067829
 Na       -8.5393967605        3.1461987457        0.4405299052
