117

 C       -12.8816444176        8.7226288936       -4.2317021508
 C       -11.8163651890        7.9025688496       -5.0886955876
 O       -11.6580064500        6.7764743973       -4.7984436289
 C       -10.9562726271        8.7210685665       -6.1272271058
 C       -10.0418737143        9.6350002130       -5.2485186817
 O        -9.8869905280       10.8716150961       -5.3148327739
 C        -9.1101735290        8.8651845059       -4.3654365726
 C        -8.7001550258        9.6930334703       -3.0905615208
 C        -7.7473368871        8.8734899327       -2.3049756488
 O        -6.9083294318        8.2409266839       -2.8695279892
 C        -7.7657484815        8.7348330325       -0.6363048565
 C        -8.8585233918        7.6650787642       -0.4375328884
 O       -10.0278817953        8.0519199277       -0.2563844402
 C        -8.6372187510        6.1870624247       -0.6877432204
 C        -9.7435927542        5.7039666931       -1.6684886317
 C        -9.8057286959        4.1888754019       -1.8298752916
 O        -8.8129744517        3.5136214217       -1.5031364518
 C       -11.0885475120        3.3707247463       -2.3842393169
 C       -11.7365077156        2.9198168027       -1.0222281126
 O       -11.5221777892        1.8468427729       -0.4841063202
 C       -12.7366283845        3.8998113145       -0.2776154558
 C       -12.6902489141        3.7644477043        1.3180945607
 C       -11.2713410099        3.9203634442        1.9412589910
 O       -10.2393218684        3.8647801083        1.3013081960
 C       -11.1370678431        3.9430325432        3.5334897669
 C       -10.8803377679        2.4173629897        3.8363906676
 O       -10.2708453298        1.7885794263        3.0431820711
 C       -11.3680667502        1.8016273076        5.2123576847
 C       -10.8870388136        0.2677879912        5.5521799015
 C       -11.4549142753       -0.8892438307        4.4643350395
 O       -12.3227788378       -0.7810937713        3.6456595184
 C       -10.5736004690       -2.2250211659        4.6277837620
 C        -9.3176163279       -2.0998311672        3.6211835782
 O        -8.2576500325       -1.5689542337        3.8990368217
 C        -9.4335382705       -2.7680971357        2.2717388896
 C        -8.2592798907       -2.4811664771        1.2994438173
 C        -8.2291055233       -1.0260116430        0.9060840951
 O        -9.1636494319       -0.3379912571        1.1793455056
 C        -6.9808043486       -0.5175793712        0.1468778450
 C        -6.4303508208        0.6568316085        1.1224270481
 O        -6.7900767934        1.7995772452        0.9929986270
 C        -5.4743100253        0.2518814077        2.2423486291
 C        -6.0480560461       -1.6319592495       -0.2965750114
 C        -7.5319200933        0.1696945079       -1.1476416206
 C       -10.3888834293       -2.3658352480        6.1926276331
 C       -11.4755199588       -3.3706456509        4.2354984424
 C        -9.7927669800        4.7516793314        3.6645169597
 C       -12.2285976115        4.5593886124        4.3605283422
 C       -12.0014977249        4.2594435203       -3.2878614915
 C       -10.6323411683        1.9835723304       -2.9622532010
 C        -6.4386411980        8.1936317271       -0.0762696281
 C        -8.0932034857       10.0687483527       -0.0454215769
 C        -9.9439845548        7.7105915744       -6.8260934347
 C       -11.7676467280        9.5900492070       -7.0715187427
 H       -12.7406607990        9.8484573847       -4.1545937503
 H       -12.9364654809        8.3839921633       -3.2261951495
 H       -13.9027129613        8.6496092959       -4.7399537097
 H        -8.1586039359        8.7788958141       -4.9417697857
 H        -9.4969213209        7.9343794604       -4.0648202679
 H        -9.5117014091       10.1942770538       -2.5357814272
 H        -8.2427760227       10.5483003139       -3.4977786267
 H        -8.6542492894        5.7290469218        0.2993495920
 H        -7.6340073428        5.9549245115       -1.0401170834
 H        -9.7080053639        6.1878155351       -2.6508040814
 H       -10.6955005618        6.0672981485       -1.2380612816
 H       -13.6583966153        3.6262518157       -0.7304887600
 H       -12.5299746145        4.9636202993       -0.4155477951
 H       -13.0953436892        2.8350145122        1.7655285469
 H       -13.2180573835        4.6974676795        1.6762172210
 H       -12.4681627150        1.8221987511        5.1273960996
 H       -11.0146718988        2.3960789235        6.0885479524
 H       -11.3192076067       -0.0117972602        6.5222565522
 H        -9.7858464663        0.2081135944        5.5599957960
 H       -10.3919328884       -2.3664002030        1.8540320276
 H        -9.5774431545       -3.8618705699        2.4450133987
 H        -8.3299920890       -3.1929986931        0.5007970059
 H        -7.3158796124       -2.7808178475        1.6584021495
 H        -5.7607695256       -0.6674344300        2.7709137842
 H        -5.3888729267        1.0992183024        2.9097411114
 H        -4.5027918586        0.0144615980        1.7870333831
 H        -6.7343457156       -2.3464840606       -0.9162905209
 H        -5.5550303135       -2.0323663748        0.5326510231
 H        -5.3258180679       -1.2719420186       -0.9721281325
 H        -7.5217159343       -0.5870416610       -1.9580954468
 H        -6.9121878846        1.0274081508       -1.3722967513
 H        -8.5817015216        0.4220802460       -1.0748159933
 H       -11.1613013844       -1.8649232383        6.7995113738
 H        -9.4382285636       -1.9321773899        6.4635415335
 H       -10.4540339903       -3.4054708248        6.7112421846
 H       -12.3414991297       -3.2305866915        4.9648751346
 H       -11.0702649704       -4.4162748940        4.2035788125
 H       -11.9078598928       -3.2457888923        3.2064250063
 H       -10.0068739111        5.7971459932        3.2975342630
 H        -8.9669349682        4.2489044253        3.1107577736
 H        -9.4969168831        4.8339214100        4.6958590783
 H       -12.3495488498        5.6393664488        4.2451789770
 H       -11.9540558165        4.3694774758        5.4223761978
 H       -13.2803586816        4.0697100386        4.1383458293
 H       -12.8405331945        3.8056107711       -3.7738377276
 H       -11.3206442005        4.6619940155       -4.1325219828
 H       -12.2633056562        5.1663268251       -2.7726205330
 H       -11.5386197642        1.4138668307       -3.1566670360
 H       -10.0534142670        1.3809905966       -2.2423805194
 H       -10.1756341182        2.1870917184       -3.9271182270
 H        -5.8024838892        9.0354133194        0.0900410533
 H        -5.9177235818        7.5759777327       -0.8163875627
 H        -6.5673214084        7.6911725875        0.8692655396
 H        -7.5202876310       10.9542274979       -0.2483061088
 H        -8.0585951975        9.9960772851        1.0476599093
 H        -9.0602016385       10.3239626597       -0.4320018718
 H        -9.4155472860        7.3117534115       -5.9754611588
 H        -9.3203894894        8.3002507179       -7.5335993447
 H       -10.5345871112        7.0011495344       -7.2822066794
 H       -12.7317420064        9.6735900198       -6.7295688682
 H       -11.7737580593        9.1774750408       -8.0745366679
 H       -11.1391045496       10.4930191729       -7.1451087743
 Na       -9.2586871051        2.0521842005        0.4347406595
