117

 C       -19.4297934196        6.0334112838       -0.1334358727
 C       -18.5863258991        5.2211907310        0.7738992427
 O       -18.3049940288        5.6260818688        1.8871724628
 C       -17.9031711215        3.8607616867        0.2547691448
 C       -16.3083496753        3.8925780685        0.2737939157
 O       -15.6930241291        3.8110602782       -0.7739659877
 C       -15.6558482814        4.0758165912        1.6147801697
 C       -14.3608885524        4.9327079002        1.5379002077
 C       -13.2380666004        4.5152455564        2.5070364119
 O       -13.3070142640        3.5359171429        3.1975969161
 C       -11.9662738888        5.5386243120        2.6614292589
 C       -10.9200845121        5.2113499785        1.5675610457
 O       -10.3192749201        4.1076717428        1.6229749290
 C       -10.6734716616        6.1969007550        0.4106078367
 C        -9.5746451857        7.2449704374        0.5995002072
 C        -9.1265630206        7.7395548851       -0.7750621763
 O        -9.6335936142        7.4358262910       -1.8357121592
 C        -7.7770096581        8.6424381942       -0.7087578842
 C        -6.7254175927        7.6425250232       -0.1333416027
 O        -6.2948195580        7.7568401023        1.0247584986
 C        -5.9870051492        6.6809214582       -1.1745317507
 C        -5.1626649380        5.6046664880       -0.4752705296
 C        -5.9985770415        4.9323328138        0.6455096687
 O        -7.2152774456        4.9675690603        0.6936992858
 C        -5.2668342341        3.9372401632        1.6020416884
 C        -5.5085846323        2.4987981749        0.9449098151
 O        -6.6441116341        2.1498376293        0.6435969703
 C        -4.3423986664        1.4877542149        0.9525298232
 C        -4.6718439998        0.2343262985        0.1070832977
 C        -4.5440777996        0.5345598651       -1.3927255862
 O        -4.2155896085        1.5925095573       -1.8026871358
 C        -5.0339495561       -0.5486696084       -2.4028913858
 C        -6.4364894240       -0.0105909384       -2.8152716450
 O        -7.4636903388       -0.5628894809       -2.3481047987
 C        -6.4633501782        1.2430628898       -3.6725044693
 C        -7.9468228744        1.6159530086       -3.9443089179
 C        -8.6712498269        2.0137070705       -2.6772257865
 O        -8.2274670960        2.9687672975       -2.0027229073
 C       -10.0423814568        1.3388649284       -2.2342629790
 C        -9.6839670933        0.3877441199       -0.9141840811
 O        -9.1731994656        0.8977214371        0.0890119449
 C       -10.0746187900       -1.1305608942       -0.9890940619
 C       -11.0808385906        2.3938977557       -1.8396829793
 C       -10.5546567603        0.4104237585       -3.3547338271
 C        -3.9680235393       -0.5903207001       -3.4905881984
 C        -5.1093342826       -1.9674239356       -1.8577195147
 C        -3.7806450034        4.2230939923        2.0500577860
 C        -6.1289005967        4.0485157167        3.0294319748
 C        -7.4021931185        9.3136769278       -2.0633256955
 C        -7.8910002261        9.8076227651        0.3970633253
 C       -12.4909041823        7.0442995338        2.6462417269
 C       -11.3262809989        5.2964263351        4.0230600957
 C       -18.2591351692        2.6995918041        1.2571562886
 C       -18.4619772181        3.4482150305       -1.1209689822
 H       -20.0634177463        6.6849387078        0.4655585398
 H       -19.9160734494        5.4778140620       -0.9619173773
 H       -18.7176105910        6.6770772851       -0.6144875471
 H       -15.3123964684        3.1019915844        1.9536186221
 H       -16.3805212688        4.3927375381        2.3738929409
 H       -14.5150159240        6.0187373450        1.7257141166
 H       -13.9473580321        4.7887101320        0.4933523843
 H       -11.6358786473        6.5662648712       -0.0023224306
 H       -10.4028540891        5.5004588830       -0.4215124022
 H        -8.7398949010        6.6592733211        1.0620139543
 H        -9.8951168911        8.0253295815        1.2478185632
 H        -5.3596337471        7.1476437580       -1.9626848621
 H        -6.8602985849        6.1588826533       -1.7144024882
 H        -4.1281270020        5.9609598527       -0.1921088555
 H        -4.9807477922        4.7340471314       -1.0999485249
 H        -4.3156811450        1.1965983090        1.9833217220
 H        -3.3565677995        1.8496924798        0.5505495505
 H        -5.6213932169       -0.2491876698        0.4357623164
 H        -3.9476389747       -0.5400553782        0.3787886708
 H        -5.9746466676        1.0933346536       -4.6122391661
 H        -5.8536469454        2.0196650743       -3.1521346876
 H        -8.3605275486        0.7743707690       -4.6087253233
 H        -7.8811499155        2.4895856302       -4.6143669886
 H        -9.7302727120       -1.4927397971       -1.9522544540
 H       -11.1862729927       -1.0392957775       -1.0967488064
 H        -9.6922110984       -1.6752203162       -0.1351358339
 H       -10.8017527444        2.9105876988       -0.9304887898
 H       -12.0536837521        1.9229614077       -1.7226905879
 H       -11.0969398058        3.1742694937       -2.6049733566
 H       -11.5309636434        0.0896166842       -3.0274192155
 H        -9.8135742616       -0.3346248896       -3.7314192564
 H       -10.7311863140        1.1222521029       -4.1959206687
 H        -2.9914718482       -0.7982164654       -3.1522782204
 H        -3.9110006538        0.4060980222       -3.8795243433
 H        -4.2783102293       -1.3012741512       -4.2335819039
 H        -5.4744845728       -2.6463833450       -2.6221378927
 H        -5.8180979840       -2.0428194200       -1.0155871258
 H        -4.1881740033       -2.2475001962       -1.4684348680
 H        -3.1589514323        4.3993563450        1.2272732459
 H        -3.4595281100        3.3725303210        2.7343687552
 H        -3.7991193274        5.2490280646        2.5364118036
 H        -5.8490589898        3.2672121800        3.6984267645
 H        -7.1805906720        3.8847330989        2.8440848602
 H        -5.9945860856        5.0311576033        3.4221434725
 H        -6.4232684977        9.6972739247       -2.1336088686
 H        -8.0859918865       10.2282691727       -2.1540635427
 H        -7.5039310797        8.5843323500       -2.8068196077
 H        -8.8103668666       10.2837672713        0.0823380027
 H        -7.0346314019       10.4490810211        0.4274817056
 H        -7.9675590315        9.4004106858        1.3751155481
 H       -11.5763729894        7.6078746053        2.8072653489
 H       -13.1501182907        7.2148918724        3.5316500809
 H       -12.8885825598        7.4155419958        1.7007161734
 H       -10.9531687262        4.2601517561        4.0029247596
 H       -12.0689629644        5.4063163063        4.7901194795
 H       -10.5146041933        5.9583827867        4.2088508465
 H       -17.9043547906        1.7090411863        1.1282882227
 H       -19.3398544576        2.7394598780        1.3057318812
 H       -17.8987026512        2.8134556217        2.3167491004
 H       -17.8873113993        4.0003775434       -1.8956621022
 H       -19.5533815061        3.6736455318       -1.2030426868
 H       -18.3455021232        2.3727285180       -1.4172299065
 Na       -8.7221310050        3.4612160647        0.1544068786
