117

 C       -19.1317456367        6.3583141146       -0.0832571278
 C       -18.4237110696        5.3786775303        0.8191280939
 O       -18.2358487990        5.6793128014        1.9845712822
 C       -17.9812572058        3.9002239671        0.4248884049
 C       -16.3831326920        3.9135106449        0.4142196557
 O       -15.7150335657        3.7544920221       -0.5956363904
 C       -15.5720278555        4.1382020083        1.6760335291
 C       -14.1800034936        4.7060394472        1.3015131469
 C       -13.0594776115        4.5490075267        2.3200291842
 O       -12.9934828804        3.5417743401        3.0007299087
 C       -11.9010158159        5.6304443555        2.4169479546
 C       -10.8414392916        5.1163899066        1.3720536685
 O       -10.3934058215        3.9886956270        1.5787247657
 C       -10.5387997148        5.9234643268        0.1093822507
 C        -9.6468713018        7.1199583578        0.3191443438
 C        -9.0510578142        7.6712325393       -0.9568425899
 O        -9.3122658525        7.2939545527       -2.0767235468
 C        -7.7839558003        8.6291309819       -0.7503618694
 C        -6.6398977033        7.7448103663       -0.1545700691
 O        -6.2402112951        7.7838241627        1.0292040390
 C        -5.9704831005        6.8347550916       -1.1169866275
 C        -5.1737968954        5.7695810902       -0.2636582187
 C        -6.0843853288        5.0127631929        0.6161537665
 O        -7.2858203735        5.0889829487        0.5570396475
 C        -5.3830946497        4.0109899815        1.5516782070
 C        -5.5498557646        2.5625584520        0.9539516040
 O        -6.6092100421        2.1884066987        0.4533030745
 C        -4.4934875091        1.5151985398        1.2715598743
 C        -4.9026699404        0.2625121344        0.4122467044
 C        -4.6886541643        0.5491991238       -1.0978829232
 O        -4.3523329444        1.6705950391       -1.4294513374
 C        -5.0765998565       -0.5208970578       -2.1732383942
 C        -6.4954279841       -0.1498738701       -2.6144117302
 O        -7.4524360037       -0.9159094540       -2.4342802447
 C        -6.5520712776        1.0336045919       -3.5679763554
 C        -7.9033689450        1.6750087062       -3.9681478840
 C        -8.7554300752        2.0334084567       -2.6930792351
 O        -8.4145323003        2.8829847095       -1.9023576255
 C       -10.0659045164        1.2204672123       -2.2694606243
 C        -9.7686461395        0.4587876827       -0.9773395831
 O        -9.2673523923        1.0240067992        0.0322805016
 C       -10.2054279800       -0.9659092796       -0.7566230576
 C       -11.0777301569        2.3547733904       -1.8630861361
 C       -10.5594224837        0.3879784960       -3.4059007377
 C        -4.1023933466       -0.4591140297       -3.3484950617
 C        -5.0276299986       -2.0116611111       -1.6962090215
 C        -3.8512625632        4.3929954630        1.7328746769
 C        -6.0658487525        4.0531440605        2.9163217669
 C        -7.4133789050        9.1399803602       -2.2009656301
 C        -8.1844626836        9.8011372471        0.1011196091
 C       -12.3492395111        7.1092107728        2.2938914965
 C       -11.2284683436        5.4600676308        3.7956210525
 C       -18.5053782749        3.0520868198        1.5671726261
 C       -18.3928649207        3.4312322452       -1.0017039479
 H       -19.4876997628        7.2281572759        0.4161264825
 H       -19.9128766363        5.7602815173       -0.6707843525
 H       -18.4534453746        6.6033302696       -0.8359061162
 H       -15.4873544768        3.1576987926        2.2210970883
 H       -16.0406569757        4.7906388475        2.4200030389
 H       -14.1911145047        5.7318408914        0.8589333906
 H       -13.8080393934        4.0913308498        0.4931363485
 H       -11.4715950042        6.1782806639       -0.2618506899
 H       -10.1608123405        5.2799401991       -0.6995566411
 H        -8.7788867600        6.7894955043        0.9186240989
 H       -10.1815421113        7.8340378329        0.7724704654
 H        -5.3447238100        7.2897004657       -1.8609458414
 H        -6.7360208801        6.2427107805       -1.6013106662
 H        -4.4111734797        6.1148644850        0.3975254800
 H        -4.7694878753        4.9693703203       -0.9089142346
 H        -4.6839478841        1.2578275982        2.3171276655
 H        -3.4757069912        1.7933621552        1.0104683522
 H        -5.8889796412       -0.1200257282        0.7757071619
 H        -4.1849554320       -0.5047744519        0.6761668569
 H        -6.0016423076        0.7690649283       -4.4506779494
 H        -5.9229061630        1.8392932949       -3.1276220113
 H        -8.4388799376        0.9829592499       -4.6442127826
 H        -7.6239153901        2.4561235290       -4.5940521127
 H        -9.4957806276       -1.6691236482       -1.2454202304
 H       -11.2246172724       -1.1401209711       -1.1174540743
 H       -10.0800969730       -1.0681541300        0.2824967087
 H       -10.7010048289        3.0897035516       -1.2352803553
 H       -11.8716423793        1.8226180793       -1.2792671680
 H       -11.4709329884        2.8537345070       -2.7885030379
 H       -11.4692930474       -0.0980823398       -3.0900140372
 H        -9.7741391898       -0.3029674106       -3.5932597897
 H       -10.6762009646        0.9774423255       -4.2904631747
 H        -3.3090592371       -1.1604382312       -3.0730211979
 H        -3.6472230916        0.5927651406       -3.3631376377
 H        -4.4265536578       -0.8417642251       -4.3142020372
 H        -5.2911380781       -2.7430872748       -2.5331840943
 H        -5.7639128987       -2.1444020696       -0.9090525158
 H        -4.0055515317       -2.2015973403       -1.3165559898
 H        -3.1144510756        4.2646644033        0.9994882526
 H        -3.5335830492        3.7574089761        2.5270206014
 H        -3.9956438759        5.4525628517        2.1015280718
 H        -5.6017704793        3.2371571147        3.5379055983
 H        -7.1209647949        3.7639681523        2.9397878055
 H        -5.8464322304        5.0542644934        3.3064849916
 H        -6.4569857982        9.6542770060       -2.2376421670
 H        -8.1880795249        9.8761511834       -2.6040992390
 H        -7.3434315527        8.2861624276       -2.8368893826
 H        -9.0399017139       10.4517413810       -0.2789779023
 H        -7.2205069391       10.3165811376        0.1388465760
 H        -8.3609553486        9.3895758072        1.0748542960
 H       -11.6110767938        7.8032419271        2.6790446908
 H       -13.2735423988        7.2785287630        2.9274976480
 H       -12.6305732386        7.3134854475        1.2735096968
 H       -11.0147322189        4.3833571749        4.0232634095
 H       -11.9403646355        5.9032650794        4.5562574692
 H       -10.2829350987        5.9476549313        3.8132396989
 H       -18.0382594718        2.0643510280        1.4345930942
 H       -19.5492541138        2.8593563431        1.6333846120
 H       -18.1733213025        3.3106601697        2.5862638842
 H       -18.1450591044        4.0929460120       -1.7808820124
 H       -19.3900974357        3.0365754146       -0.9835265300
 H       -17.9054619046        2.5235484497       -1.2921075820
 Na       -8.6685919283        3.0603105232        0.4365607279
