117

 C       -18.9721052386        6.3830050286       -0.1267895746
 C       -18.3390333585        5.3995435713        0.8868603878
 O       -18.0993262864        5.7499145001        2.0037590306
 C       -17.9012712377        3.8844210516        0.4891593305
 C       -16.3362974147        3.9507669205        0.4445607876
 O       -15.8140156113        3.7659993716       -0.6332511557
 C       -15.5701368185        4.2581204360        1.7291808766
 C       -14.1802309250        4.6964835761        1.2747914604
 C       -13.0673422011        4.5219199699        2.2959332004
 O       -12.9327302271        3.5622899426        2.9829686424
 C       -11.8793414395        5.6475586848        2.3219671750
 C       -10.8838036705        5.1149921081        1.2995576741
 O       -10.3263507248        4.0160163813        1.5006688224
 C       -10.4870530774        5.8740778933        0.0145235241
 C        -9.5881107920        7.1266695008        0.2786004769
 C        -8.9940178219        7.5552361722       -1.0782130712
 O        -9.3987872239        7.1021311398       -2.1083600107
 C        -7.7942431481        8.6749192337       -0.8521310589
 C        -6.6173309098        7.8519478081       -0.2089004169
 O        -6.3930037157        7.9792442504        0.9673492811
 C        -5.9333309282        6.9036605834       -1.1858118708
 C        -5.1405314310        5.8435638891       -0.3520092962
 C        -6.0766557053        4.9694195032        0.5217021235
 O        -7.2788444509        5.0627301291        0.5378322376
 C        -5.3257957691        3.9735808946        1.6221200244
 C        -5.5797445024        2.4457140436        1.0902710320
 O        -6.5687113215        2.1986770798        0.4359973783
 C        -4.5272380427        1.3763293301        1.3833610144
 C        -4.7624817866        0.1336863559        0.4377234229
 C        -4.7264478772        0.6293442444       -0.9945776562
 O        -4.3263673613        1.6724414183       -1.3612880147
 C        -5.0478983917       -0.5399819905       -2.0878307113
 C        -6.5268745865       -0.2706792645       -2.7683046566
 O        -7.5229580915       -0.9133333578       -2.4379792303
 C        -6.5701139786        1.1027744913       -3.5432676147
 C        -7.9611209166        1.6226208911       -3.8585582596
 C        -8.7737741809        1.9732232235       -2.6400236273
 O        -8.3488808345        2.9779438729       -2.0285980793
 C       -10.1187940223        1.1966458903       -2.3095916425
 C        -9.8697615212        0.3759393601       -0.8936877448
 O        -9.4009206337        0.9273565810        0.0741046754
 C       -10.2933853467       -1.1071814768       -0.7572905376
 C       -11.1810386908        2.3021824906       -1.9470292370
 C       -10.6650064490        0.2742252351       -3.3968099179
 C        -3.9414221302       -0.3746712055       -3.2043766220
 C        -5.1298829573       -1.9300506323       -1.4731313291
 C        -3.8634081495        4.2628787422        1.8034721675
 C        -6.0900026134        4.0811493202        2.8789688969
 C        -7.4381977326        9.2331263587       -2.2617515830
 C        -8.2013146056        9.7891103821        0.1518584447
 C       -12.3304575705        7.0609735908        2.1134994370
 C       -11.2108566444        5.5840948753        3.8101027442
 C       -18.4827547600        3.0297930479        1.5841824390
 C       -18.5374399642        3.4694163799       -0.8745090345
 H       -18.9305557712        7.3902409044        0.3089401712
 H       -19.9424442056        6.0890587122       -0.3234894063
 H       -18.4758813324        6.3335471222       -1.0875162773
 H       -15.6485861179        3.4461518756        2.4737704783
 H       -16.0300400117        5.1323432115        2.2573941304
 H       -14.1747427521        5.7494820482        0.8765087823
 H       -13.8891336731        4.0792474523        0.3359253659
 H       -11.3595548930        6.1294859308       -0.5934249296
 H        -9.9477664500        5.2165880185       -0.6208579893
 H        -8.8582981045        6.9504794697        0.9866066139
 H       -10.2530229011        7.9528074399        0.5003586076
 H        -5.1543619217        7.4652709137       -1.7308748834
 H        -6.5995241680        6.3626247174       -1.9269534844
 H        -4.5882950097        6.3415368011        0.5100555393
 H        -4.4960921449        5.2251909565       -0.9464030593
 H        -4.6635639753        1.0881148383        2.3934722297
 H        -3.5276287823        1.8332193529        1.1232761323
 H        -5.7568763320       -0.2770583540        0.7285494748
 H        -4.0075771539       -0.6425208678        0.6280607928
 H        -6.0007201560        0.9642952968       -4.4228457753
 H        -6.0199941580        1.8839572146       -2.9968300474
 H        -8.4618649842        0.9665416760       -4.6060316614
 H        -7.7939763901        2.5486868641       -4.4310714189
 H        -9.5816610753       -1.7113090391       -1.2777501848
 H       -11.2260898654       -1.1318562330       -1.3494158213
 H       -10.3578182822       -1.4108762826        0.3256134995
 H       -10.6280181977        3.1081075492       -1.3132645567
 H       -11.8881512265        1.8743495302       -1.2637676671
 H       -11.6392991988        2.7931623881       -2.8079422671
 H       -11.5879191510       -0.0851358536       -2.9811625837
 H        -9.9283374736       -0.5850261271       -3.5573002638
 H       -10.7988078861        0.8115484286       -4.3562211979
 H        -2.9640392583       -0.7515557376       -2.9548199166
 H        -3.9079229771        0.6421282160       -3.4427989452
 H        -4.2299702256       -1.0064694315       -4.0586675742
 H        -5.2120544150       -2.6585816541       -2.2879590654
 H        -6.0792066942       -2.0639328096       -0.7972226744
 H        -4.2220759463       -2.1335845729       -0.9746599935
 H        -3.3122494107        4.2313325179        0.9089045307
 H        -3.3578307281        3.4222910632        2.3391539019
 H        -3.8406512433        5.2059093273        2.3385714001
 H        -5.6385474316        3.3541797952        3.5393392793
 H        -7.0818297702        3.6228838796        2.7693060356
 H        -6.0651762404        5.0884128136        3.2958324242
 H        -6.8863008094       10.1183256755       -2.1483263392
 H        -8.3817624253        9.5257337820       -2.8327952865
 H        -6.8833602900        8.5603295031       -2.8606226194
 H        -9.0999715866       10.3288642175       -0.1615987395
 H        -7.3281691069       10.4213760563        0.2439138829
 H        -8.3801010078        9.2298545626        1.0701796181
 H       -11.5119343268        7.7023552202        2.3915126278
 H       -13.1064433301        7.3359318714        2.8171175144
 H       -12.7126875593        7.2578746565        1.1124968669
 H       -11.0113025940        4.5322413097        4.0623924072
 H       -11.9802661733        5.9444138965        4.4464848795
 H       -10.2638097996        6.1075870960        3.9537761498
 H       -18.0856854847        2.0381634509        1.6478370005
 H       -19.5566275198        2.8338028441        1.4743905081
 H       -18.3841712983        3.4494596459        2.6251442538
 H       -17.9988052937        3.8603168306       -1.7380780628
 H       -19.6102984371        3.4604915754       -0.9039149859
 H       -18.4395870363        2.3674421989       -1.0136357520
 Na       -8.5383334195        3.1466600949        0.5016834046
