117

 C       -18.6760783978        6.3852609483       -0.2002502509
 C       -18.2724112851        5.5435136018        0.9670126540
 O       -17.9218395822        5.9966485780        2.0594088182
 C       -17.9627907728        3.9858646279        0.6283051263
 C       -16.4186227827        3.9715048478        0.4255160163
 O       -15.9472919345        3.7346686866       -0.6767515961
 C       -15.5038818529        4.2285092635        1.6251506452
 C       -14.1305297063        4.7296839235        1.1744082395
 C       -13.0239088223        4.6077410679        2.2145877123
 O       -13.0087632143        3.6618862009        2.9905864884
 C       -11.8564555657        5.6429381715        2.2298195114
 C       -10.8305600207        5.0340790079        1.2746634531
 O       -10.2256610033        4.0443714305        1.6227258182
 C       -10.4948318230        5.8039223714       -0.0108176331
 C        -9.6427755399        7.0933208394        0.1404370367
 C        -8.9835953363        7.6162022973       -1.1920065127
 O        -9.1492948132        7.0308392693       -2.2412664930
 C        -7.9586748368        8.7741543752       -0.9968477187
 C        -6.6710165142        7.9221292764       -0.3174743041
 O        -6.3747976020        8.1546230285        0.8523392972
 C        -5.7721765483        6.8736952601       -1.1786328671
 C        -4.9745446858        5.9005392483       -0.2293950799
 C        -5.8585374055        4.9464281859        0.5862214369
 O        -7.0541263607        5.0194923676        0.3201117152
 C        -5.2782799141        3.9270650757        1.5147009335
 C        -5.5600529157        2.4002204474        1.1307002859
 O        -6.5500580263        1.9855626882        0.5393310062
 C        -4.4202023329        1.3233967095        1.5587712842
 C        -4.6296362202        0.1098486888        0.6338854092
 C        -4.7169472028        0.5230276455       -0.8317772718
 O        -4.4424855587        1.7015310501       -1.2087219914
 C        -5.0301095393       -0.5407027973       -1.9445971230
 C        -6.4062066828       -0.0519011322       -2.6602121500
 O        -7.3800306672       -0.7673998855       -2.5288684004
 C        -6.5667028581        1.2141426229       -3.5316601751
 C        -8.0664578864        1.3822485380       -3.7611645047
 C        -8.8988696351        1.8369761745       -2.6194919686
 O        -8.5212680591        2.7519276247       -1.9363392271
 C       -10.2380660638        1.2159843882       -2.2505318412
 C        -9.9611000837        0.3920260138       -0.8513695035
 O        -9.5896859842        0.8835534998        0.2277721497
 C       -10.3662022749       -1.1159162965       -0.8602692136
 C       -11.3374641839        2.2226854792       -1.9369470612
 C       -10.6908876490        0.1760582361       -3.3882289318
 C        -3.9165062890       -0.5475117686       -2.9748232891
 C        -5.2505914688       -1.9620731564       -1.4097715970
 C        -3.8147292746        4.1972359451        1.9393729799
 C        -6.1621753354        4.0512982829        2.8704531125
 C        -7.6419952202        9.4065577117       -2.3977892829
 C        -8.4585968365        9.8381255250       -0.0339296423
 C       -12.3915184570        7.0372659618        1.8712973619
 C       -11.1998147691        5.6938557806        3.6534224305
 C       -18.3058951602        3.0183862408        1.8255017710
 C       -18.7049533933        3.5303557048       -0.6526379824
 H       -18.1546205897        7.3145045627       -0.0502785751
 H       -19.8224283051        6.6355252075       -0.1985806885
 H       -18.4302986233        5.9267434409       -1.1496557641
 H       -15.4176278495        3.3107645529        2.2042436501
 H       -15.9310763881        4.9385245737        2.3056278804
 H       -14.1716560158        5.7649406633        0.8710053565
 H       -13.8937118257        4.2422781229        0.2461278499
 H       -11.4536023554        6.1846873625       -0.4218465462
 H       -10.0275268973        5.1692060276       -0.8615402943
 H        -8.6598283745        6.9113663616        0.7802355987
 H       -10.2997455298        7.8978304987        0.5195925443
 H        -4.9801631184        7.3466727425       -1.7709565198
 H        -6.3981217167        6.2850487574       -1.8181121617
 H        -4.4188424404        6.4981693949        0.4418515071
 H        -4.3185836124        5.2139882583       -0.8334487981
 H        -4.5899173277        0.9245584135        2.6021943384
 H        -3.4469798773        1.6729566281        1.3685416924
 H        -5.4695947142       -0.4473087837        1.0107613926
 H        -3.7220143382       -0.4807902411        0.7583226134
 H        -5.8631820957        1.0455690723       -4.4010614286
 H        -6.2282077527        2.0749275195       -2.9428717692
 H        -8.4349649611        0.4273097328       -4.1435175884
 H        -8.4019800002        2.0828826744       -4.5522052974
 H        -9.6650576963       -1.6846639345       -1.5411122059
 H       -11.3867932160       -1.1755276935       -1.2444959503
 H       -10.2719175703       -1.5202719533        0.1077285309
 H       -11.0699715168        2.8052196701       -1.1540895463
 H       -12.3119985916        1.7169777306       -1.6982298396
 H       -11.4873180792        2.8456394870       -2.8354469575
 H       -11.7234088938       -0.2524107510       -3.1943839338
 H        -9.9854997439       -0.6248967191       -3.3828819049
 H       -10.6523126967        0.6813709798       -4.3612696465
 H        -2.9667658341       -0.6027869090       -2.4877112962
 H        -3.9367661499        0.3042812444       -3.6940001770
 H        -4.0120364386       -1.4672658789       -3.4659096628
 H        -5.4039825397       -2.5231353110       -2.3266510885
 H        -6.0960569668       -1.9886776097       -0.8555788807
 H        -4.3671078604       -2.4421730683       -0.9708209299
 H        -3.1909151630        3.7087292583        1.1898281588
 H        -3.5380802773        3.6144683351        2.7931062425
 H        -3.6244908946        5.2762929887        2.1962937089
 H        -5.7735697395        3.3959493635        3.6635923645
 H        -7.1718404911        3.7635701554        2.6759233197
 H        -6.0837009824        5.0702220987        3.2013748391
 H        -7.5625862289       10.5096838132       -2.3451220727
 H        -8.4864896206        9.1372305103       -3.0139857993
 H        -6.8305009702        9.0061019672       -3.0174434897
 H        -9.3912058701       10.1045527728       -0.5482237996
 H        -7.8532183023       10.7204165441       -0.0012363157
 H        -8.7623866087        9.3955830360        0.8682291777
 H       -11.8329304329        7.8898052525        2.2606920755
 H       -13.4024154984        7.2196416982        2.2924900090
 H       -12.5827460207        7.1061062371        0.8101715043
 H       -10.6705634095        4.8372107594        4.0309399750
 H       -11.9582422173        6.0218826265        4.3931171898
 H       -10.4776537501        6.4734153386        3.5586761578
 H       -17.9950714371        1.9509252174        1.6543211103
 H       -19.3618692536        2.8372324186        1.9847431195
 H       -18.0391065219        3.3962290816        2.7931352964
 H       -18.0664796737        3.7674476248       -1.5153170195
 H       -19.7065929691        4.0067754013       -0.7221918962
 H       -19.0179233087        2.4873977381       -0.7805354480
 Na       -8.5759229142        3.1391773487        0.2428476772
