117

 C       -18.5001577934        6.5961448868       -0.1881990213
 C       -18.0905984356        5.5815273726        1.0032032280
 O       -17.9263285075        6.0482349989        2.1105792092
 C       -17.9307460683        4.0489757421        0.7265482953
 C       -16.4177708682        3.8683136354        0.3283629705
 O       -16.0374161012        3.7147383317       -0.8122348621
 C       -15.4039555953        3.9705296600        1.4799720415
 C       -14.0755322908        4.6533643625        1.0495941779
 C       -13.0298911882        4.6422863398        2.1794192590
 O       -13.1400379617        3.8314959290        3.0590939970
 C       -11.8942805992        5.7331515585        2.1694699721
 C       -10.7987393107        5.1425448938        1.1475919438
 O       -10.0700044183        4.2530848110        1.6008618711
 C       -10.4697150580        5.7065272221       -0.2568028684
 C        -9.5596521141        6.9495189612        0.0364802187
 C        -8.8523901115        7.4641906896       -1.2527398252
 O        -9.0528886927        6.9236684031       -2.3230217621
 C        -7.8373613745        8.6392192248       -1.1389229641
 C        -6.5581368184        8.0549786030       -0.3358079645
 O        -6.4080345910        8.4009058558        0.8121685684
 C        -5.8694816381        6.9345850563       -1.1045478414
 C        -5.0847435490        6.1208184317       -0.1166699635
 C        -5.8690955499        4.9933159469        0.4994907112
 O        -6.9785110867        4.7129687667        0.0634827290
 C        -5.3167817656        4.0541408448        1.5327345873
 C        -5.4809291778        2.4093184962        1.1798599078
 O        -6.6048613121        2.0773615650        0.9408678103
 C        -4.3845520289        1.3646865976        1.5253831221
 C        -4.5636844206        0.0567246405        0.6155156227
 C        -4.6897645620        0.4787811815       -0.8096361985
 O        -4.5313469370        1.6229933123       -1.1313008981
 C        -5.0278741607       -0.5856433639       -1.8734141674
 C        -6.4274688110       -0.1215842594       -2.5055565984
 O        -7.4069107119       -0.8104159089       -2.3684732103
 C        -6.5882907577        1.2233343440       -3.2323695408
 C        -7.9942306747        1.3542722876       -3.8685221202
 C        -8.9320225172        1.7270548624       -2.6841707597
 O        -8.5349193784        2.6852409708       -2.0086200247
 C       -10.2493158895        1.0628038402       -2.2944113174
 C       -10.0490044606        0.2544586957       -0.8872182893
 O        -9.7746667042        0.9394260876        0.0328453024
 C       -10.3089664708       -1.1856461510       -0.6767994842
 C       -11.3486133051        2.2007692856       -2.0063400755
 C       -10.9060069119        0.1420834631       -3.3795140374
 C        -3.8311213555       -0.6032686727       -2.9613983640
 C        -5.2677888661       -1.9548736254       -1.2993441224
 C        -3.8045492559        4.3259006774        1.9285838045
 C        -6.2510658231        4.1696509357        2.8356988264
 C        -7.5066749688        9.1730921568       -2.4730759835
 C        -8.5031072428        9.7112425860       -0.1549645242
 C       -12.4185111356        7.1322091361        1.7849959811
 C       -11.3551923358        5.7402571156        3.6196522657
 C       -18.2489774743        3.4155559416        2.1203739690
 C       -18.8185595270        3.4639491136       -0.3487306186
 H       -18.1895425614        7.6417367530        0.0110608744
 H       -19.5119332375        6.6068359461       -0.3333876366
 H       -18.0357096664        6.2032634198       -1.1248015433
 H       -15.1905108989        2.9643625299        1.8625063170
 H       -15.7820301150        4.5383583722        2.3509530374
 H       -14.2002099796        5.6411051833        0.6463206560
 H       -13.6558450131        4.1308929919        0.1730393573
 H       -11.2694033526        6.0851758130       -0.8999417128
 H        -9.8744615774        5.0383720396       -0.7719648812
 H        -8.8244045339        6.8343579809        0.6984706610
 H       -10.2300615654        7.7550628664        0.3420369962
 H        -5.0735626561        7.4584153486       -1.5970075864
 H        -6.4904605463        6.3909630532       -1.8264451049
 H        -4.8193435330        6.8971317273        0.6444443731
 H        -4.2360712915        5.6379832616       -0.5225741011
 H        -4.4492665528        1.2400282793        2.5767139896
 H        -3.4171759646        1.8081371880        1.1568541659
 H        -5.4978410058       -0.4242697841        0.9261410145
 H        -3.7275031666       -0.6349244465        0.7768595982
 H        -5.8942158708        1.2517255769       -4.0512164821
 H        -6.3497495908        2.0397833551       -2.5294446948
 H        -8.2276118958        0.5063830456       -4.4749667900
 H        -7.9665951816        2.2086079793       -4.5412811371
 H        -9.7389957557       -1.7914179409       -1.3128884083
 H       -11.3850671582       -1.3497905317       -0.6901821637
 H        -9.9650261574       -1.3568437486        0.3785392301
 H       -11.0647310895        2.5804247052       -0.9502267931
 H       -12.3182573350        1.7854289828       -1.9359292223
 H       -11.4391558913        3.0029157496       -2.7070089218
 H       -11.7865854539       -0.2321798799       -2.9576074088
 H       -10.3349263245       -0.7551725831       -3.6339304619
 H       -11.2287351202        0.6997476984       -4.2312140859
 H        -2.9407429768       -1.1679460230       -2.5335148855
 H        -3.5440566814        0.4114518101       -3.2231058002
 H        -4.2340657229       -1.1393984911       -3.8966317927
 H        -5.7012509348       -2.6105056639       -2.0485037233
 H        -5.9478908432       -1.8306456391       -0.3935305687
 H        -4.2897858921       -2.3895070155       -1.0710451560
 H        -3.1380977378        4.1636760996        1.0434230215
 H        -3.4462762862        3.7168401967        2.7881623880
 H        -3.7394570778        5.2922346135        2.3161163182
 H        -6.0633141980        3.3208249376        3.5091422047
 H        -7.3016331295        4.1620720121        2.4305309409
 H        -6.0806652145        5.0850714233        3.4665652028
 H        -7.0155626679       10.1477723448       -2.4303570340
 H        -8.3646103049        9.1353145785       -3.1321733878
 H        -6.8460233146        8.4917255678       -3.0458480856
 H        -9.4645303266       10.0554143993       -0.5023529716
 H        -7.8274803423       10.5837257687       -0.2347396589
 H        -8.5893564345        9.2816452581        0.8866620236
 H       -11.5972660360        7.8587665641        1.9578514440
 H       -13.2427558628        7.5241080637        2.3531380629
 H       -12.7346989540        7.2668455687        0.7192990312
 H       -11.0499950349        4.6905540726        3.7961545764
 H       -12.1025049306        5.9837015156        4.3683347673
 H       -10.4202820782        6.3692713249        3.8028753173
 H       -18.2548911260        2.3759983727        2.1801214849
 H       -19.2741733895        3.6356303224        2.4184704100
 H       -17.7824890880        3.9460853202        2.9215255454
 H       -18.7401560180        3.9780986680       -1.3038284693
 H       -19.8457554200        3.5515290544       -0.0455743081
 H       -18.6320762110        2.4190495508       -0.5531142459
 Na       -8.6814152705        3.0302488428        0.2171537753
