117

 C       -18.2716950767        6.5254084273       -0.2750357941
 C       -17.9929186920        5.7732747984        1.0272273013
 O       -17.7977963303        6.2793756641        2.0919630303
 C       -17.9178757442        4.1102909077        0.9269580538
 C       -16.4863756854        3.8527353234        0.3733706453
 O       -16.3765662485        3.7324674098       -0.8372836499
 C       -15.3180077274        3.8070327316        1.3647976104
 C       -14.0409360383        4.5276862282        0.9166646675
 C       -13.0704559054        4.6460507295        2.0837721322
 O       -13.2604252120        3.9760938545        3.0601712112
 C       -11.8664457729        5.7409631948        2.1573807474
 C       -10.7146980600        5.1689203310        1.1970946380
 O       -10.0291575506        4.2747524083        1.6319748227
 C       -10.5824847649        5.8350489775       -0.1986083845
 C        -9.5128483818        6.8972470611       -0.0805513079
 C        -8.8475246039        7.3190441828       -1.3959861026
 O        -8.9678890530        6.7364981559       -2.4238317856
 C        -7.8503296440        8.5555673401       -1.1753201593
 C        -6.6736239191        8.0457443166       -0.2892408091
 O        -6.3201337935        8.6155888526        0.7380035883
 C        -5.7025068421        7.0027274237       -1.0437653338
 C        -5.0859864079        6.0052545078        0.0004883910
 C        -5.8730464583        4.7888005495        0.3583572697
 O        -6.8778867519        4.5332769459       -0.2214567893
 C        -5.4616864590        4.0711062075        1.6777959103
 C        -5.6238636017        2.5262696112        1.4550780391
 O        -6.6741870350        1.9715533145        1.1780703197
 C        -4.2992207553        1.5906787452        1.4198768500
 C        -4.6526639106        0.2996851869        0.7463928762
 C        -4.7279955442        0.5404768419       -0.8100347360
 O        -4.4987558683        1.6516411063       -1.3070960397
 C        -5.0827419700       -0.5906909947       -1.7887549568
 C        -6.5299227869       -0.2327238362       -2.3415731007
 O        -7.5425093925       -0.9082911082       -2.1305610146
 C        -6.5900976322        0.9063340303       -3.2816454041
 C        -8.0619305961        1.1730483712       -3.7706583049
 C        -8.8963090816        1.6782967255       -2.6318947521
 O        -8.6576055892        2.7326772665       -2.1106897322
 C       -10.2797018057        1.0120341614       -2.2763333643
 C       -10.1490994042        0.3310259297       -0.9591905483
 O        -9.7380390983        0.9673608973        0.0402682155
 C       -10.2810776047       -1.1896902984       -0.8981769164
 C       -11.3316911938        2.1325384265       -2.1366781208
 C       -10.7485836058        0.0287816545       -3.3487677182
 C        -4.0906168007       -0.6066190733       -3.0155219778
 C        -5.0586801250       -2.0723960998       -1.1512867073
 C        -3.9703848291        4.3376734078        1.9787976812
 C        -6.1996338472        4.4683822068        2.8957140508
 C        -7.3192511459        9.0515502705       -2.5263204169
 C        -8.5393699060        9.8273651145       -0.5160366706
 C       -12.4304746407        7.1645672324        1.6564504174
 C       -11.2561475170        5.8862813468        3.5747723822
 C       -18.1802288252        3.4677793273        2.2785137473
 C       -18.9479335053        3.5856855151       -0.1245457684
 H       -18.4262234016        7.5754379374       -0.1141975093
 H       -19.2745517863        6.1541767040       -0.6511250738
 H       -17.5348093507        6.2948754261       -0.9752889201
 H       -15.0754800842        2.7276880570        1.4166162361
 H       -15.5483584031        4.1104085624        2.3821331025
 H       -14.2181635832        5.5529372570        0.4537618167
 H       -13.5718797286        3.9789402620        0.0589275922
 H       -11.5274711949        6.2656746769       -0.4820863870
 H       -10.1282678281        5.1148752534       -0.9764612514
 H        -8.5523945032        6.4553637925        0.4847642855
 H        -9.8213576628        7.7728656699        0.4989517410
 H        -4.8628240125        7.5172228724       -1.6131860701
 H        -6.2748713862        6.3543985037       -1.7289623540
 H        -5.0225696629        6.5166352844        0.9565021648
 H        -4.0444547228        5.5930379324       -0.2245503083
 H        -4.0335766225        1.4210329027        2.5109716379
 H        -3.4679115779        1.9955990406        0.8815963938
 H        -5.5782520118       -0.0139106790        1.2444768534
 H        -3.8752384148       -0.4306595451        0.9984438795
 H        -5.9760969249        0.8125241462       -4.1936016747
 H        -6.2706883385        1.7814646705       -2.7255128751
 H        -8.5754499215        0.3343011999       -4.3432820296
 H        -7.8906221289        2.0065647161       -4.4809155560
 H        -9.5732760509       -1.5405449346       -1.6999534459
 H       -11.3250030023       -1.5582385570       -0.9784386631
 H        -9.8917251489       -1.6242234016        0.0054496980
 H       -10.9862456977        2.9126086909       -1.5257756016
 H       -12.3257004920        1.7439698356       -1.7988695793
 H       -11.5978545294        2.5066024920       -3.1468742093
 H       -11.6663718163       -0.5884377389       -3.0580848971
 H        -9.9902872159       -0.7459249384       -3.5337047331
 H       -11.0882209254        0.5709836126       -4.2676068640
 H        -3.2752066708       -1.1770138663       -2.7083896554
 H        -3.7362774229        0.4247286702       -3.1553336153
 H        -4.5426814915       -0.8833402718       -3.9128162553
 H        -4.9915326777       -2.8451317017       -1.9284741494
 H        -5.9611491873       -2.1596240612       -0.5775294526
 H        -4.1945961002       -2.2011123218       -0.5276872077
 H        -3.3691592445        4.2765550643        1.1086296108
 H        -3.6922117596        3.6691058839        2.7791391908
 H        -3.7848183196        5.3525838795        2.5091271908
 H        -5.6849401651        4.0718485814        3.7748774667
 H        -7.2081557931        4.1411329178        2.7548488573
 H        -6.2377424132        5.5382322141        3.0467937846
 H        -6.3027180639        9.2951947860       -2.3731101976
 H        -7.8379182505        9.9293984374       -2.9994565496
 H        -7.3380064988        8.3168239916       -3.2731957893
 H        -9.4618827002       10.1186393889       -1.0706938093
 H        -7.8445690348       10.6400513328       -0.6477514325
 H        -8.7405171447        9.6723302763        0.5239413743
 H       -11.7162114801        7.9631743749        1.5518259703
 H       -13.2581641929        7.5661013613        2.2694261767
 H       -12.8781226838        7.1538624364        0.6863985227
 H       -10.8777415507        4.9353469564        3.9538764135
 H       -11.9761287912        6.2532662833        4.3230787298
 H       -10.4639968557        6.5563133944        3.5671012230
 H       -18.0553785945        2.3701705535        2.1699988110
 H       -19.1861424885        3.5527005092        2.6786471742
 H       -17.5711165072        3.9129311618        3.0919685524
 H       -18.9711281498        4.2002776984       -1.0511624074
 H       -20.0494151821        3.6055976850        0.1324086884
 H       -18.6001536358        2.5818899074       -0.4450858486
 Na       -8.6022140970        2.9929031782        0.4337927944
