117

 C       -18.0470597891        6.6095652948       -0.3035181649
 C       -17.8050609222        5.8187432561        1.0475657865
 O       -17.4183105028        6.4297094536        1.9946362926
 C       -17.9482589743        4.2289723639        1.1145559020
 C       -16.4671926183        3.8866459454        0.4980277206
 O       -16.3507387344        3.9196144218       -0.7059741106
 C       -15.3158846754        3.6263395118        1.3856297549
 C       -14.1427697670        4.5059747147        0.9246459046
 C       -13.1342718878        4.6858145772        2.1075653805
 O       -13.2906705823        4.0644614104        3.1239045248
 C       -11.9667119312        5.8138523123        1.9964361904
 C       -10.8189899553        5.1695947803        1.0886987450
 O       -10.2829394136        4.1164912183        1.3697818565
 C       -10.4385686786        5.9076486402       -0.1951417148
 C        -9.2504670418        6.9292405841       -0.1050871449
 C        -8.7445270646        7.2683470297       -1.5376903823
 O        -9.0900097249        6.5813568552       -2.4719096789
 C        -7.7297287073        8.5096053010       -1.5986257341
 C        -6.5591366112        7.9249307295       -0.5676842250
 O        -6.5106741670        8.4071562010        0.5409903754
 C        -5.5854054202        6.9077723384       -1.0799131608
 C        -4.9613078707        6.1579412500        0.0385293716
 C        -5.8019481272        4.9815727113        0.4550906612
 O        -6.7216738967        4.5835941264       -0.1944852869
 C        -5.4571198489        4.1927483470        1.8410806467
 C        -5.6096085188        2.6536849220        1.6428681673
 O        -6.7060741503        2.1359754595        1.6710218497
 C        -4.4339668440        1.7149023030        1.4641216935
 C        -4.8151739966        0.4589147114        0.6280303900
 C        -4.6993240212        0.5979469164       -0.8766125653
 O        -4.5115646075        1.6187481467       -1.4351852034
 C        -5.0603201429       -0.7424876138       -1.7248121386
 C        -6.4828720371       -0.3318400456       -2.3048625018
 O        -7.5301669524       -0.7226687135       -1.8162824458
 C        -6.5862222892        0.6638910063       -3.4520180431
 C        -8.0513807942        0.9483841029       -3.8917794548
 C        -8.9371440911        1.5570345530       -2.7210437442
 O        -8.5615779390        2.3971901095       -1.9771504152
 C       -10.3138564815        0.8740169856       -2.3517895987
 C       -10.1481624177        0.1427441410       -0.8923207218
 O        -9.6925496097        0.8136193662        0.0421299074
 C       -10.6202589208       -1.2165586227       -0.6325723893
 C       -11.2918212864        2.0955485109       -1.9812077282
 C       -10.9116917840       -0.0882421049       -3.3380168273
 C        -3.9825782041       -0.8160226335       -2.8292188492
 C        -5.0416049453       -2.1163407306       -1.0024070574
 C        -4.1115116405        4.5292302958        2.5604385083
 C        -6.7041396839        4.6947949507        2.8259640019
 C        -7.2549637977        8.7324220243       -3.0309093897
 C        -8.1715571848        9.8796688246       -1.0326594633
 C       -12.5428247950        7.0267799121        1.3885680255
 C       -11.3928394828        6.0639257554        3.4374278671
 C       -18.0675371794        3.7988912262        2.5896204428
 C       -19.0404542289        3.7154068086        0.1478209983
 H       -17.5600631557        7.5715648389       -0.4683729149
 H       -19.1138440382        6.8018598328       -0.3745154713
 H       -17.7622027419        5.9323455418       -1.0408778886
 H       -15.0924539195        2.5401963488        1.3127933869
 H       -15.5674631101        3.8236822894        2.4256565671
 H       -14.6343668914        5.5491373378        0.7720586139
 H       -13.7474305649        4.1287605408       -0.0585138050
 H       -11.3009649118        6.3895078216       -0.5315491564
 H       -10.1946087968        5.1093285240       -0.8753945494
 H        -8.4014646608        6.4613831986        0.4856000447
 H        -9.4975514638        7.7766271870        0.4779916338
 H        -4.7101402310        7.3894187846       -1.6400326538
 H        -5.9782131466        6.2287926915       -1.8687071181
 H        -4.7299338835        6.7818880992        0.8887188793
 H        -3.9655413582        5.6679429104       -0.2450125268
 H        -4.0155209398        1.3832282186        2.4539955837
 H        -3.5724617822        2.1798585415        1.0002285434
 H        -5.8074903888        0.0733150104        0.9708162063
 H        -4.1126958007       -0.3177300689        0.9791873826
 H        -5.9740715789        0.2696265036       -4.2567101456
 H        -6.1523163661        1.5738455413       -3.1056788857
 H        -8.5813335301       -0.0254959753       -4.1905015829
 H        -8.1728529041        1.7155996624       -4.6645263484
 H        -9.7309765210       -1.8362843426       -0.7184574684
 H       -11.5473394995       -1.5997735457       -1.0540129406
 H       -10.8594238623       -1.2611650454        0.4406706701
 H       -11.0032815003        2.7334246902       -1.1039757828
 H       -12.3006895237        1.7076484174       -1.7691771317
 H       -11.3325952221        2.8307862976       -2.8003158634
 H       -11.7624185883       -0.5965590656       -2.9107103920
 H       -10.2546755466       -0.8552065098       -3.7655946355
 H       -11.3018874867        0.3978908055       -4.2218306249
 H        -3.0225053394       -1.0001244266       -2.3085597929
 H        -3.9193234100        0.1251765715       -3.3947978401
 H        -4.2655998954       -1.6168824918       -3.5583316718
 H        -5.6406833000       -2.7851957713       -1.6608707811
 H        -5.4984701937       -2.1240457961        0.0506297196
 H        -4.0330402067       -2.4018974171       -0.9313499924
 H        -3.3014559076        4.7693312732        1.9606952757
 H        -3.8680683982        3.7353831622        3.2838026146
 H        -4.2595333796        5.5444218405        3.0236268860
 H        -6.7188295907        4.1706008285        3.8127539233
 H        -7.7131190323        4.7325142086        2.3530699777
 H        -6.5438073145        5.7636830551        3.0910557705
 H        -6.3974457383        9.3738773644       -3.1188874953
 H        -8.0707222185        9.3673538074       -3.5619190704
 H        -7.0075983359        7.8555147114       -3.5583436352
 H        -9.1486535726       10.1991306228       -1.5297665683
 H        -7.4356458715       10.6906182374       -1.1365804037
 H        -8.2562830426        9.7994721073        0.0367616228
 H       -11.8284410073        7.8034508728        1.2298192883
 H       -13.4404131738        7.5087729418        1.8218037876
 H       -12.8045673338        6.8796143787        0.3662726604
 H       -10.9472561668        5.1611611803        3.9480955699
 H       -12.1375383404        6.4814391748        4.1499259241
 H       -10.6775570359        6.8509122230        3.4396402241
 H       -17.7791970629        2.7900164628        2.8567436197
 H       -19.1130239041        3.9123290973        2.7898803055
 H       -17.4430375873        4.4648279167        3.2413197576
 H       -18.6819611604        3.7422844735       -0.8522779306
 H       -19.8455729577        4.4326000883        0.0609283320
 H       -19.3473980458        2.7207651341        0.4037064739
 Na       -8.5995125328        3.1117516875        0.2467871946
