117

 C       -18.0650338660        6.5824290069       -0.2937835626
 C       -17.7726764462        5.8925408610        1.0543583193
 O       -17.2810282599        6.5609175667        1.9769001793
 C       -17.9206925857        4.3727193512        1.1242988930
 C       -16.5030620035        3.8588506625        0.5720713941
 O       -16.4054067195        3.9053213372       -0.6328856412
 C       -15.2669537691        3.5901388353        1.4278616655
 C       -14.1249127414        4.5565539041        0.9977177036
 C       -13.1325167932        4.6801261530        2.1471583627
 O       -13.2674892634        3.9970082707        3.1399970935
 C       -11.9819338877        5.7868028338        1.8755050029
 C       -10.8663566839        5.1734501607        1.0096650513
 O       -10.3638985657        4.0916210930        1.3625160957
 C       -10.4284935680        5.8695813320       -0.3085883373
 C        -9.3572052012        6.8967556508       -0.1178640875
 C        -8.7742928892        7.2831627594       -1.4687970502
 O        -9.1076241616        6.6791429176       -2.4893674117
 C        -7.6198205696        8.4444903116       -1.6761410154
 C        -6.4402204247        8.0138682428       -0.6834935364
 O        -6.5299304042        8.2575340031        0.4867566859
 C        -5.4819420085        6.9294487053       -1.1623306927
 C        -4.8667954594        6.0990830860        0.0051857792
 C        -5.8083297779        4.9556148772        0.5379487214
 O        -6.7625075912        4.6039503935       -0.1487440918
 C        -5.6169974131        4.2805044134        1.9514459375
 C        -5.7220249824        2.7308696341        1.6117974116
 O        -6.8332749581        2.2289695977        1.5744761989
 C        -4.4489479758        1.8378779426        1.3728638361
 C        -4.7849171695        0.4865876625        0.7058773276
 C        -4.7805313811        0.5864151205       -0.8192704988
 O        -4.4704804268        1.6156107293       -1.3398900850
 C        -5.0711037216       -0.7146134760       -1.6980876366
 C        -6.4767195801       -0.2877137679       -2.3379856409
 O        -7.4534869712       -0.7112539652       -1.7673756799
 C        -6.6199328858        0.7229862064       -3.5036701682
 C        -8.0932598593        0.7898765356       -3.8504073137
 C        -8.8558779664        1.3751872016       -2.6135644633
 O        -8.3771892322        2.3773619465       -2.0787778707
 C       -10.3499334344        0.8448665440       -2.2427742273
 C       -10.1516034317        0.1050915519       -0.7581210908
 O        -9.6301147173        0.7858140027        0.0850083857
 C       -10.7042238937       -1.2598553986       -0.5769029243
 C       -11.2132932405        2.0548287142       -2.0733537058
 C       -10.9768268932       -0.0510458736       -3.2623230056
 C        -3.9749566936       -0.8142047862       -2.8624320895
 C        -5.1989631621       -1.9957860727       -0.9422621578
 C        -4.2343072397        4.5559671660        2.5786390284
 C        -6.7318355414        4.6708744322        2.9153601918
 C        -7.2110637441        8.5136455359       -3.1521079012
 C        -8.1632052229        9.7796912257       -1.0998354778
 C       -12.5449798989        7.0974394611        1.3793867759
 C       -11.4156178978        6.1589643001        3.3122996015
 C       -18.1345910521        3.8270167038        2.5685959574
 C       -18.9422125123        3.7405823978        0.1867648323
 H       -17.3879547068        7.4260846988       -0.5070167956
 H       -19.0067066630        6.9737586746       -0.2710937018
 H       -17.9384060756        5.8373459989       -1.1117538465
 H       -14.9402853806        2.5705274330        1.1324013620
 H       -15.4333914695        3.5616894276        2.5042844490
 H       -14.5743102610        5.5283489647        0.5873052033
 H       -13.5671963360        4.0415024878        0.1920295072
 H       -11.3750748977        6.3412281118       -0.8014766368
 H       -10.1047847988        5.0349229605       -0.9363807690
 H        -8.4919441654        6.4133650152        0.4189128737
 H        -9.6502429396        7.7579287093        0.6167631574
 H        -4.6026807338        7.3534208900       -1.6984319904
 H        -5.8983165304        6.2799228656       -1.9758047364
 H        -4.7671200190        6.7802828044        0.8989831458
 H        -3.8424364224        5.7184369733       -0.1843419744
 H        -3.7716099105        1.7466804445        2.2144362678
 H        -3.8176099445        2.4367953998        0.6353486100
 H        -5.8607188984        0.3316626940        0.9813594149
 H        -4.2837827671       -0.3347964178        1.1771960382
 H        -6.0631112319        0.2948180666       -4.3084566948
 H        -6.1340321486        1.7136028464       -3.2253118528
 H        -8.4544192391       -0.2288084561       -4.1237635683
 H        -8.4232471902        1.5712360266       -4.5568112695
 H        -9.9329201525       -1.9627762805       -0.7437434161
 H       -11.6369305520       -1.4425755867       -1.1054465970
 H       -11.0300620829       -1.4139769644        0.5010129308
 H       -10.8363144131        2.6689315677       -1.1559730104
 H       -12.2142240334        1.7879641163       -1.8446366818
 H       -11.1293106930        2.7708944797       -2.8731673695
 H       -11.9170407040       -0.4238692080       -2.8789283497
 H       -10.3639364340       -0.9593761183       -3.5691879340
 H       -11.2025650865        0.3879976540       -4.2605874459
 H        -3.0707242568       -1.2254555872       -2.4117982067
 H        -3.7422880479        0.1192408059       -3.2596199023
 H        -4.3439295273       -1.4797621725       -3.6670092914
 H        -5.6695581430       -2.6740879072       -1.6091063433
 H        -5.8236336864       -1.9082549173       -0.0204026264
 H        -4.2088750547       -2.2889521073       -0.6380905544
 H        -3.3693698760        4.5723170187        1.8857210947
 H        -4.0837350554        3.7117667646        3.2977550953
 H        -4.1696884539        5.4994670922        3.0371034827
 H        -6.8946714108        4.0344224631        3.7724586646
 H        -7.6865662011        4.8459795315        2.3714930449
 H        -6.4999571372        5.6813497677        3.2883034511
 H        -6.6170680313        9.4112385308       -3.2326633308
 H        -8.0054574208        8.7067509332       -3.8086825759
 H        -6.5321788795        7.7399123637       -3.4664509348
 H        -9.0421198214       10.0568179689       -1.6513797920
 H        -7.4258299389       10.5655605207       -1.2625425963
 H        -8.2801300055        9.8175306208       -0.0068369071
 H       -11.7734465499        7.8141385850        1.1532376661
 H       -13.1447873268        7.5772846079        2.1215570297
 H       -13.1637655846        7.1667705247        0.4861320449
 H       -10.9647727645        5.3339444284        3.8401191371
 H       -12.0673999087        6.6294257290        3.9864570606
 H       -10.6311823946        6.9242384425        3.1778362428
 H       -17.9595513888        2.7656987999        2.5889748606
 H       -19.2010032637        4.0179228926        2.8477975960
 H       -17.3620532727        4.1752637904        3.2853811920
 H       -18.8051961989        3.9210143445       -0.8856293308
 H       -19.9172105196        4.2168888784        0.3941386708
 H       -18.9655529474        2.6485320887        0.4263307399
 Na       -8.5196581509        3.0713707809        0.2242605903
