117

 C       -18.1473736123        6.8023378869       -0.1978870019
 C       -17.5772053736        6.0441118376        1.0319007064
 O       -16.8776363244        6.6752667223        1.8097404421
 C       -17.8250365548        4.4862490708        1.2026440817
 C       -16.5225750505        3.8140402926        0.5617540830
 O       -16.4005400303        3.4586041440       -0.5870483626
 C       -15.2851726098        3.6933211917        1.5253771940
 C       -14.1925256624        4.7723690788        1.2008366390
 C       -13.0390305672        4.7714593533        2.1979168980
 O       -12.9271305082        3.9946866909        3.0989148344
 C       -11.8401818171        5.8563872537        1.8108446069
 C       -10.8966964205        5.2050894603        0.8029045732
 O       -10.3545243278        4.1559998996        1.1769199057
 C       -10.6141739239        5.7867869459       -0.5895612508
 C        -9.5142118138        6.8114962831       -0.4332250912
 C        -8.7947325745        7.1392263959       -1.7919825672
 O        -9.2461383887        6.7915149552       -2.8509750299
 C        -7.5465316098        8.0368320589       -1.8355605710
 C        -6.5012860749        7.5905582252       -0.8012488525
 O        -6.6480732385        7.9616344819        0.3457511454
 C        -5.2689966213        6.7148087732       -1.2153328009
 C        -4.9034675908        5.7462975247       -0.0438940052
 C        -6.0501946289        5.0212980290        0.6578124198
 O        -7.1626283464        5.0333135458        0.0978127455
 C        -5.8404789869        4.3579408918        1.9879049984
 C        -5.9045991550        2.7859610436        1.6311809514
 O        -6.9366562325        2.2190331700        1.3373757323
 C        -4.5677616510        1.9872750777        1.5419402047
 C        -4.7451254383        0.6932337405        0.7738386791
 C        -4.6897413182        0.7353507747       -0.8094830190
 O        -4.2577997284        1.6981268484       -1.4666187323
 C        -5.1321528160       -0.6430286253       -1.6174633199
 C        -6.5640315925       -0.3971014538       -2.1823959703
 O        -7.5368614272       -0.6802813565       -1.4908319830
 C        -6.7001327212        0.2288733318       -3.5540684042
 C        -8.1407907516        0.7165512576       -3.9022886955
 C        -8.7600955567        1.2638839025       -2.5727672336
 O        -8.1824270533        2.1320295044       -1.9059227448
 C       -10.1305893355        0.8471527270       -2.1351300801
 C       -10.0872517102        0.2702008994       -0.6241526418
 O        -9.6403979592        0.8989947584        0.3060285785
 C       -10.6581027647       -1.1122584491       -0.3002733548
 C       -11.0894813890        2.1339371218       -1.9824608798
 C       -10.9818907471       -0.0660386750       -3.0440495403
 C        -4.0857454948       -0.8606943427       -2.7223105049
 C        -5.1211816029       -1.7989865900       -0.5306056920
 C        -4.5506408900        4.7673929175        2.7189169040
 C        -7.0841308981        4.7464498110        2.8238118276
 C        -6.8300558755        8.0129575090       -3.2459197685
 C        -7.9384174918        9.4560123697       -1.4158901525
 C       -12.4826843724        7.1103527363        1.2467493831
 C       -11.0865181367        6.2966776806        3.0301192085
 C       -18.0701926557        4.1179231843        2.7195299635
 C       -19.0325552756        4.0127861004        0.3727595796
 H       -18.2832426194        7.8339513709       -0.0055913867
 H       -19.0330839073        6.3330990867       -0.5340247033
 H       -17.4047426264        6.7208528483       -1.0204309058
 H       -14.7900456332        2.7202428299        1.3440842069
 H       -15.5543690532        3.6772081102        2.5827175486
 H       -14.7233371330        5.7883111217        1.3645983610
 H       -13.8306410491        4.7714196653        0.1242854840
 H       -11.5076930645        6.1724490124       -1.1095601245
 H       -10.3509190506        5.0293972527       -1.2563323996
 H        -8.8223557755        6.4714121702        0.3115578870
 H        -9.8285132827        7.8621244754       -0.1219393590
 H        -4.3752418559        7.3797698619       -1.3741255989
 H        -5.3462450936        6.1317890305       -2.1848943692
 H        -4.3366023364        6.3336915014        0.7527664482
 H        -4.1843170894        4.9409122248       -0.2656368077
 H        -4.1802535566        1.8210414963        2.5156429462
 H        -3.6866324009        2.5803607253        1.1829767627
 H        -5.7501772828        0.2775575819        1.0694737499
 H        -4.0289789446       -0.0553408253        1.1185186573
 H        -6.3960683529       -0.4666442113       -4.2667966371
 H        -5.9914470122        1.0756765744       -3.7411640180
 H        -8.8770257283        0.0375177981       -4.3683007536
 H        -7.9120069970        1.5519474951       -4.6364634804
 H       -10.3605803076       -1.8532454478       -1.0462595741
 H       -11.7534660830       -1.1475058676       -0.1355784678
 H       -10.2374365369       -1.4059640276        0.6883905840
 H       -10.5870483663        3.0218244911       -1.5681497283
 H       -11.9210263419        1.9721756165       -1.2857422848
 H       -11.4511146494        2.4957226688       -2.9662419592
 H       -11.7642859025       -0.5642703565       -2.5402305967
 H       -10.4255922025       -0.8708215863       -3.5005043091
 H       -11.3917896859        0.4098482167       -3.9102056908
 H        -3.0092517204       -0.8190678191       -2.4211623518
 H        -4.2297795571       -0.0552195085       -3.4518986837
 H        -4.1775128060       -1.8922643675       -3.1474573504
 H        -5.3926343950       -2.7400094911       -1.0409647094
 H        -5.8561571141       -1.6635095490        0.2349307645
 H        -4.0808011766       -1.9625383281       -0.0456629966
 H        -3.6891240137        4.7315912509        2.0027543472
 H        -4.2177482091        3.9150216638        3.3381843401
 H        -4.6445479286        5.6018961447        3.3175997004
 H        -7.0434515413        4.5962741629        3.9003835919
 H        -7.9603943549        4.1087854879        2.5582233480
 H        -7.3249531672        5.8166661436        2.6312127322
 H        -5.7708292483        8.3949172502       -3.1890801491
 H        -7.3193254778        8.5674792279       -3.9617551967
 H        -6.8127263460        6.9392975361       -3.6254261266
 H        -8.7506842917        9.8257489943       -2.0336200457
 H        -7.0776522942       10.1711598618       -1.3905511629
 H        -8.4466177965        9.4197974463       -0.3914105636
 H       -11.8815205088        8.0053308651        1.1976639252
 H       -13.1907748027        7.4428260935        1.9605506061
 H       -13.1574542865        7.0337392400        0.4013342787
 H       -10.5908060793        5.4568918828        3.5060935928
 H       -11.7461943107        6.6676974215        3.8012607566
 H       -10.2334237108        7.0610523080        2.9027923793
 H       -17.7415866929        3.1284575492        2.8543455759
 H       -19.1060242210        4.3670862907        2.9482697360
 H       -17.3741861195        4.6787280887        3.3222026417
 H       -18.7773288194        3.8377218939       -0.6616591348
 H       -19.8918743952        4.5871505359        0.5564892736
 H       -19.3162190949        3.0686864823        0.7839479090
 Na       -8.7629110219        3.1254716278        0.0899517163
