117

 C       -12.9423315396        8.4335237283       -4.6581766916
 C       -11.8156135467        7.6856134521       -5.3317954252
 O       -11.4676219878        6.6038270203       -4.9520079681
 C       -10.9753159858        8.5733087005       -6.3284841223
 C       -10.2717155243        9.7475012098       -5.3238731273
 O       -10.7037152924       10.9033742553       -5.3796879504
 C        -9.0748111982        9.2478622821       -4.5068288527
 C        -8.8730795027        9.8055209262       -3.1151968564
 C        -7.7535433951        9.0253676494       -2.4292415288
 O        -6.8464832943        8.5729150246       -3.1069298515
 C        -7.7014479858        8.6596956257       -0.8905761663
 C        -8.7804573067        7.5659030549       -0.7108440296
 O        -9.8813381776        7.8215220792       -0.2653583596
 C        -8.4254524275        6.1144569720       -1.3675362942
 C        -9.6918787191        5.4392985479       -1.8790656719
 C        -9.8716515473        3.9378541316       -1.7917102510
 O        -8.9563905050        3.2068538775       -1.3587395870
 C       -11.2146228438        3.2348103445       -2.2219017946
 C       -11.9197856803        2.9549500187       -0.8648263939
 O       -11.8892600355        1.9066592607       -0.2446773080
 C       -12.8354936089        4.1100133589       -0.2428393226
 C       -12.8321732673        3.7999392399        1.3846317228
 C       -11.3856422424        3.8705362954        1.7893799928
 O       -10.5273607460        4.0234773913        0.9963100161
 C       -11.0055971859        3.8471083634        3.3440921454
 C       -10.8050008345        2.3755910959        3.6993581387
 O       -10.1390011208        1.6999393931        2.9511871155
 C       -11.2046159753        1.8684100903        5.1202690268
 C       -10.4184091464        0.5578275674        5.4632036731
 C       -11.1879946476       -0.7150829678        5.0878627170
 O       -12.3294174524       -0.4834579228        4.6897228889
 C       -10.5526757977       -2.0724500988        4.9808679415
 C        -9.2645492211       -1.7957251008        3.8554322173
 O        -8.2687389504       -1.2051067590        4.1887334942
 C        -9.1492450152       -2.7646316131        2.6073840390
 C        -7.9202431014       -2.3297742882        1.7292712686
 C        -8.2029195785       -0.9787743380        0.9606987237
 O        -9.2914929257       -0.4967435735        1.0741452800
 C        -7.0294342278       -0.4158080367        0.1405227801
 C        -6.5242557979        0.7282610522        1.1569043214
 O        -7.0951440678        1.7703296850        1.2964213495
 C        -5.2909471547        0.4319768354        1.9549645560
 C        -5.8358534032       -1.4150362874       -0.1341534204
 C        -7.4441075360        0.1653322252       -1.2618237997
 C        -9.7527935629       -2.6421186422        6.1203404959
 C       -11.5769535792       -3.0513168111        4.5168118058
 C        -9.5778691618        4.3749680358        3.5334231217
 C       -12.0827748022        4.5379473216        4.2357200182
 C       -12.0731246382        4.3014140795       -2.9959674706
 C       -10.9868157778        1.9983950367       -3.1038835959
 C        -6.3342087414        8.1681052448       -0.4217579117
 C        -8.1444917165        9.8604068505       -0.0264305804
 C        -9.9378919764        7.6784045748       -7.0851322301
 C       -11.9344191100        9.2603905959       -7.3043838151
 H       -12.9471930633        9.4919403837       -4.6846165337
 H       -12.9420179360        8.1630371757       -3.6715723833
 H       -13.9194881437        8.1471954815       -5.1117391846
 H        -8.2408726433        9.2989407762       -5.1746399412
 H        -9.3131852258        8.1866991345       -4.2401712599
 H        -9.8411325616        9.9728959793       -2.6417810529
 H        -8.5086757525       10.8972021414       -3.2299100298
 H        -7.9608098934        5.5213159711       -0.6016932152
 H        -7.6426244341        6.1482991534       -2.1783983279
 H        -9.9351953627        5.6197085890       -2.9355742115
 H       -10.4747165297        5.8454731180       -1.3249286531
 H       -13.9291641937        3.9378400262       -0.4828590862
 H       -12.5164562126        5.1307921719       -0.3986645989
 H       -13.3018578042        2.8574047875        1.5365873909
 H       -13.4733137594        4.5715973855        1.9466440566
 H       -12.2285550527        1.5960245432        5.2822299742
 H       -10.8981240156        2.6441780444        5.7873715767
 H       -10.2193666067        0.5155129328        6.5276718997
 H        -9.5692888878        0.5313357642        4.8140258360
 H       -10.0637948024       -2.6535916705        2.0101213830
 H        -9.0841794165       -3.7153529022        3.0893251537
 H        -7.5337294560       -3.2008121777        1.0732858936
 H        -7.0426264537       -2.1669207082        2.3803628877
 H        -5.5271396355       -0.2152845697        2.8325392717
 H        -4.9088424210        1.3080766732        2.3693620972
 H        -4.5785206500       -0.0831795040        1.3187274792
 H        -6.1738110676       -2.1345316303       -1.0097301482
 H        -5.5881333334       -2.0507884710        0.6827843194
 H        -4.9986490673       -0.8246302808       -0.5215597795
 H        -7.7638932794       -0.6753797906       -1.8929048451
 H        -6.5708136112        0.7826205648       -1.6135222655
 H        -8.2508554404        0.8863845917       -1.1079643956
 H       -10.3590899610       -3.2834545491        6.7349061363
 H        -9.2650832821       -1.9397315021        6.7166783108
 H        -9.0330999258       -3.4311838905        5.8458409101
 H       -12.3814155529       -3.1920497257        5.2063459127
 H       -11.0654133928       -3.9744341171        4.5034884903
 H       -11.9769898716       -2.8791431234        3.5550810540
 H        -9.5260932568        5.4180387429        3.1925193148
 H        -8.9090404839        3.7796121257        2.9245612370
 H        -9.2170767686        4.2360657601        4.5067814927
 H       -11.7019780118        5.1906019085        4.9584839829
 H       -12.7880346199        3.9083807883        4.7105818936
 H       -12.5598038582        5.2967496255        3.6370065645
 H       -13.0522717944        3.8455374893       -3.1034447241
 H       -11.6786014377        4.6806725198       -3.9786479616
 H       -12.3037184420        5.1836740748       -2.4757401491
 H       -11.4304313493        1.0474902563       -2.7892117883
 H        -9.9055779758        1.7822958405       -3.0190138737
 H       -11.3750856766        2.3001816554       -4.0462383522
 H        -5.5494156704        8.9143359540       -0.5662147777
 H        -6.0367595730        7.2012439461       -0.8729568311
 H        -6.4765164605        8.0358663680        0.6528635176
 H        -7.9832477426       10.7584269347       -0.6331214305
 H        -7.4680505229       10.0768737970        0.7873406498
 H        -9.2107070195        9.9274358002        0.2644840816
 H        -9.7932117124        6.8473189249       -6.3947146456
 H        -8.9848964742        8.2188941492       -7.3057583776
 H       -10.5040717117        7.4403045094       -7.9504646979
 H       -12.8104273715        9.5264373245       -6.7694997155
 H       -12.2339779077        8.6129813894       -8.1377702477
 H       -11.3402413496       10.0880739478       -7.8143636440
 Na       -9.3808893498        1.8467133041        0.8701012180
