117

 C       -18.1519693412        6.7996681451       -0.1671743916
 C       -17.4695009502        6.0973469662        1.0807808444
 O       -16.7232811958        6.7621350706        1.7516216925
 C       -17.7455965975        4.5423056476        1.2289567581
 C       -16.4929733120        3.8282526761        0.6365254684
 O       -16.5245988652        3.3712371989       -0.4888535015
 C       -15.2489875835        3.7190195368        1.5876414836
 C       -14.3162151816        4.9166707670        1.2793068360
 C       -13.0453165380        4.8319723492        2.1205761618
 O       -12.8547819723        4.0320055377        3.0036013132
 C       -11.9380148776        5.9257127307        1.8336278328
 C       -10.9654680688        5.1972051632        0.8064249692
 O       -10.3907010840        4.1957523898        1.1996231741
 C       -10.6389971284        5.7584980560       -0.6378334471
 C        -9.5496047425        6.8562733572       -0.5542245511
 C        -8.7695703576        7.1888263916       -1.9812124245
 O        -9.2320750951        6.7069633894       -2.9904587382
 C        -7.4673429796        8.0622292182       -1.8825392630
 C        -6.4754060006        7.5401277225       -0.7955943916
 O        -6.7010300408        7.7880784597        0.3971303376
 C        -5.3295488115        6.6362991243       -1.2304539122
 C        -4.8737400248        5.7443703241       -0.0680925136
 C        -6.0704442413        4.9772747466        0.6281279639
 O        -7.1601138216        4.9926795930        0.0958784909
 C        -5.8996530993        4.2730332890        1.9911233548
 C        -5.9421436731        2.7935087956        1.6282995919
 O        -6.9722612488        2.2922962908        1.2829424216
 C        -4.6015793780        2.0007045366        1.4560982799
 C        -4.7334198527        0.6990270890        0.7647785614
 C        -4.6449666937        0.6708250532       -0.7609337750
 O        -4.3483172475        1.7132401685       -1.3505491267
 C        -5.0283904806       -0.5943366805       -1.5591547273
 C        -6.5014802635       -0.4274459458       -2.0830724426
 O        -7.4615187453       -0.7187238501       -1.4051530854
 C        -6.6750457015        0.1311607878       -3.5365141412
 C        -8.1050255448        0.7171335479       -3.7663985934
 C        -8.8538951614        1.3179376549       -2.5783377439
 O        -8.2069661999        2.1720655497       -1.9513464713
 C       -10.2697679215        0.8521583513       -2.0748152739
 C       -10.0511332071        0.2638501860       -0.5146246482
 O        -9.6709686568        1.0037572598        0.3411458016
 C       -10.5721396532       -1.1384727774       -0.2833914766
 C       -11.1087468933        2.1881373506       -1.9546767307
 C       -10.9504932682       -0.1230510353       -3.0477200323
 C        -4.0873491507       -0.9239787217       -2.6708014066
 C        -5.1112338475       -1.8653544821       -0.5703736790
 C        -4.6529081174        4.7734475620        2.8132887298
 C        -7.2533637334        4.6521920621        2.9076880509
 C        -6.8943202831        7.9940178753       -3.3791394393
 C        -7.8693226296        9.5190971383       -1.5712786659
 C       -12.5379745920        7.2576378391        1.2066731376
 C       -11.0550925661        6.1974559042        3.0680168468
 C       -18.0470338233        4.1684476709        2.6758955188
 C       -18.9281355310        3.9705566417        0.3766431869
 H       -18.4923137738        7.7703131283        0.0609483661
 H       -18.9733317090        6.1227610983       -0.5643645195
 H       -17.4590490889        6.9013012066       -0.9515544987
 H       -14.6346679020        2.8179490519        1.4480897501
 H       -15.5828479038        3.6838977913        2.6546270850
 H       -14.8693154207        5.8394741663        1.4267317989
 H       -13.9896436782        4.8993241122        0.1720216726
 H       -11.4806126628        6.1169427314       -1.2588010750
 H       -10.3234651291        4.8716861276       -1.3205558573
 H        -8.7309065527        6.4951313045        0.1608860423
 H        -9.9033421932        7.8569766432       -0.1325383650
 H        -4.4794526092        7.1692290483       -1.6825069070
 H        -5.6641151864        5.9109851355       -2.0175843351
 H        -4.1338601845        6.2077569888        0.6666051773
 H        -4.2969202597        4.9054110790       -0.4666645997
 H        -4.1176135479        1.8353442694        2.4052440596
 H        -3.7568849216        2.5964383854        1.0451446475
 H        -5.6194709061        0.1995862646        1.1339536893
 H        -3.8936367405        0.0635950758        1.1127053751
 H        -6.5321186552       -0.6538080992       -4.3387289469
 H        -5.9221648253        0.8701667121       -3.8348485635
 H        -8.8073114098        0.0122748565       -4.1857200875
 H        -7.9699605692        1.5069495451       -4.5758725967
 H       -10.3920216197       -1.9317239560       -1.0857544775
 H       -11.6592131625       -1.0877709708       -0.0947328510
 H       -10.1708225586       -1.4361772780        0.6552434510
 H       -10.5964227208        2.9516299737       -1.4821511338
 H       -12.1011206211        2.1509062916       -1.4145678419
 H       -11.2859510420        2.5421774849       -3.0072298703
 H       -11.8948674726       -0.6849747846       -2.7951131683
 H       -10.2688874803       -0.9232889101       -3.2940785466
 H       -11.1239271042        0.3418194927       -4.0306494969
 H        -3.0499978396       -0.9116926218       -2.3697399413
 H        -4.1738350842       -0.1702872297       -3.4907510081
 H        -4.2401755081       -1.9204466352       -2.9633405150
 H        -5.5838421822       -2.6923312456       -1.1196737831
 H        -5.7521853638       -1.6650789853        0.2412116486
 H        -4.1316877948       -2.2509075325       -0.1747039243
 H        -3.7550884330        4.7356987028        2.1901128257
 H        -4.3782078365        4.1084137465        3.5982933896
 H        -4.9022991501        5.7149027902        3.3510606732
 H        -7.1516762747        4.4488298479        4.0062053398
 H        -8.2038153834        4.1643414767        2.7066814671
 H        -7.3466074279        5.7402943987        2.7993723020
 H        -5.8400466540        8.0070684858       -3.5724481188
 H        -7.3814050454        8.7606903434       -3.9832877526
 H        -7.3323167237        7.0994461368       -3.8072191245
 H        -8.6465909978        9.8026728694       -2.2799244859
 H        -7.0562868949       10.2725023605       -1.5302393521
 H        -8.4705022966        9.5249463999       -0.6517013579
 H       -11.8538128500        8.0103072270        0.8491183665
 H       -13.0841682008        7.8342682587        1.9294065857
 H       -13.3071508827        7.0525607051        0.5011749100
 H       -10.5756674011        5.3334879515        3.4806717292
 H       -11.5444424299        6.6832286672        3.9217531941
 H       -10.2160490659        6.8238430690        2.7622951598
 H       -17.7351071888        3.0974090266        2.7513437533
 H       -19.0969169077        4.4091924856        2.8472854291
 H       -17.4459358855        4.7457855929        3.3501963531
 H       -18.6020383207        3.7693632743       -0.6504569869
 H       -19.7720547311        4.6397681208        0.5188436043
 H       -19.3506620852        3.0768633003        0.7809984684
 Na       -8.5894298948        3.1779962471        0.0846787753
