117

 C       -18.1476061373        6.8751718288       -0.1651877162
 C       -17.4806857026        6.0851556217        0.9673759519
 O       -16.6812814397        6.6360659078        1.7087059039
 C       -17.7691077352        4.5983137715        1.2277532226
 C       -16.4912258742        3.8202857172        0.7740702870
 O       -16.4514415211        3.2835153939       -0.3262288512
 C       -15.2057870966        3.7272925202        1.5670059218
 C       -14.3704986793        5.0012211769        1.3681546641
 C       -13.0368411200        4.9552378713        2.0881948374
 O       -12.7966263530        4.0768696444        2.8951910295
 C       -11.9039275571        5.9987654252        1.6986594859
 C       -10.9359728203        5.3057664419        0.7310990666
 O       -10.4324499818        4.2814201282        1.1330710547
 C       -10.5810556898        5.8180179196       -0.5967858174
 C        -9.5417296393        6.9243942374       -0.6482572617
 C        -8.8403224788        7.0934141885       -1.9968875504
 O        -9.2270626058        6.6321579032       -3.0371692278
 C        -7.5848465873        8.0340086614       -1.9805001435
 C        -6.5530344056        7.4546243671       -0.8473666001
 O        -6.7373409221        7.6565556153        0.3344981256
 C        -5.4650064367        6.4512116470       -1.2278278561
 C        -4.8880457075        5.6723953489       -0.0669491407
 C        -6.1212921902        5.1044569493        0.6565150252
 O        -7.1024775239        4.9441706796       -0.0370352364
 C        -5.9528522363        4.3819981197        2.0403399266
 C        -5.9398276091        2.8210928605        1.5618385694
 O        -6.9459868929        2.1576293412        1.2802067784
 C        -4.6106117496        2.0788822877        1.4500692557
 C        -4.7154673747        0.6342971097        0.8670235336
 C        -4.6797699798        0.7148461679       -0.7007842147
 O        -4.4275575634        1.6819085986       -1.2902842034
 C        -5.0354308378       -0.6414024510       -1.5295908998
 C        -6.4847901062       -0.4211343674       -1.9977525666
 O        -7.4662929229       -0.7289680016       -1.3263149049
 C        -6.7205519576        0.1470302008       -3.4100685344
 C        -8.1467144591        0.6013221660       -3.7155502115
 C        -8.7776798487        1.2673519114       -2.4333212573
 O        -8.2474981974        2.2692256790       -2.0132624019
 C       -10.2361722185        0.8953748022       -2.0514185414
 C       -10.1920291043        0.3348957728       -0.5561392097
 O        -9.6727127939        1.0821462979        0.2705877559
 C       -10.4585483966       -1.0922973618       -0.2885013855
 C       -11.1307486359        2.1155275836       -1.9453582217
 C       -10.8610834227       -0.1228069731       -2.9224701342
 C        -3.9679966405       -0.9642783196       -2.6208976430
 C        -5.0843481724       -1.9519981665       -0.6453134100
 C        -4.7703726501        4.7166123979        2.9120939461
 C        -7.2041558921        4.5013678845        2.8928786380
 C        -6.8882340759        8.0328858644       -3.4326711602
 C        -7.8302976759        9.5561078873       -1.7351332681
 C       -12.4933087778        7.3293643838        1.2341122438
 C       -11.1178253493        6.1503011413        3.0278965049
 C       -17.9555746257        4.3010985160        2.7566634714
 C       -18.9484234310        4.0368295112        0.3676801049
 H       -18.5231001356        7.8633686623        0.2384152885
 H       -18.9066597565        6.2641391607       -0.6252857633
 H       -17.4363273562        7.1360899242       -0.9277356797
 H       -14.6212932378        2.8370707747        1.3311840436
 H       -15.4738778775        3.6407186131        2.6339275841
 H       -15.0191385365        5.7802837319        1.6454425709
 H       -14.1023752665        5.1648663426        0.3367731447
 H       -11.4362257301        6.2856124497       -1.1313206860
 H       -10.4101587151        4.9411831135       -1.3306448961
 H        -8.6498953393        6.8040920111        0.0498633507
 H        -9.9541200027        7.9038059761       -0.4188873026
 H        -4.6384681568        7.0611652159       -1.5639902826
 H        -5.7041400990        5.8060961841       -2.0383996949
 H        -4.4265463802        6.3531655518        0.6019254138
 H        -4.0867783464        4.9358237926       -0.2834194215
 H        -3.9575684637        2.2305950971        2.3533396138
 H        -3.9766683529        2.6328865153        0.7905597065
 H        -5.6496246665        0.2114437600        1.1642939250
 H        -3.9571747646       -0.0890306994        1.2003158546
 H        -6.3850707897       -0.6045858077       -4.2314208404
 H        -6.0336525802        0.9636179647       -3.6012417499
 H        -8.7993604549       -0.2159771707       -4.0210002792
 H        -8.1939497822        1.3091153843       -4.5214376292
 H       -10.1242623630       -1.7900971293       -1.0482668631
 H       -11.5378155521       -1.2659638076       -0.1817231035
 H       -10.0166412800       -1.2679367916        0.7012198591
 H       -10.8360049553        2.8638925222       -1.1491133334
 H       -12.1399186301        1.8405219934       -1.6720930373
 H       -11.2215088295        2.6087646693       -2.8918564632
 H       -11.9551881276       -0.2949347949       -2.7501725883
 H       -10.4376150315       -1.1667817801       -2.8672239483
 H       -10.8285645025        0.1661941633       -4.0004942372
 H        -3.0365871587       -1.1576579363       -2.1641894090
 H        -3.8168495191       -0.0956873529       -3.2091905051
 H        -4.1810538382       -1.8441748196       -3.1838027009
 H        -5.3715328637       -2.8143037130       -1.2183516106
 H        -5.7718182757       -1.8754557745        0.2404967749
 H        -4.1555826531       -2.1720585934       -0.2985243145
 H        -3.9478374406        4.3450924882        2.4006299028
 H        -4.7316248162        4.3551379290        3.9479581491
 H        -4.7758809257        5.8356456731        3.1057300720
 H        -7.1863459482        3.9647260339        3.8416214797
 H        -8.0608919394        4.0487973406        2.4212216214
 H        -7.4393064868        5.5299869551        3.0991226122
 H        -5.8412390474        8.0844996171       -3.3627495649
 H        -7.2627538116        8.9072908718       -4.0631815736
 H        -7.1904309015        7.2182888263       -4.0062317090
 H        -8.6069052408       10.0238842836       -2.3579019598
 H        -6.9136854154       10.1081016478       -1.7803209487
 H        -8.2744081594        9.6328891820       -0.7882205175
 H       -11.7415019742        8.0128229812        0.8917195104
 H       -13.0290181682        7.9500688463        2.0000047880
 H       -13.2214751849        7.1853920638        0.4608923893
 H       -10.8137953317        5.2001239794        3.4694629277
 H       -11.7065980689        6.6572004914        3.7855096566
 H       -10.2282985933        6.6496971494        2.9275665358
 H       -17.8298123756        3.1869929224        2.8690412083
 H       -18.9091566537        4.7242545817        3.0427172467
 H       -17.1921348304        4.8791508216        3.3525194929
 H       -18.6660318420        4.1901897587       -0.6779210259
 H       -19.8746453487        4.5554822246        0.7386039588
 H       -19.2125841390        2.9734771221        0.4866313695
 Na       -8.5567922237        3.1854657468        0.0975015037
