117

 C       -18.2178609963        6.8825462839       -0.2274885609
 C       -17.5228108835        6.2581646667        0.9640499025
 O       -16.7323429934        6.8651747988        1.6496232590
 C       -17.7359788328        4.7327869020        1.2387091382
 C       -16.4592009435        3.8550914790        0.8640018726
 O       -16.5838699951        3.0677131137       -0.0734848273
 C       -15.1819490566        3.9351493799        1.6342363117
 C       -14.2341591773        5.1893701893        1.3870524371
 C       -12.8823796189        5.0461165799        2.0369719389
 O       -12.5072320726        4.0373409809        2.6077384752
 C       -11.8722411299        6.2348490643        1.7237356941
 C       -10.8898847879        5.5667649912        0.6495726156
 O       -10.3321979789        4.5450828281        0.9968616192
 C       -10.7367722830        6.1640418513       -0.8034400607
 C        -9.6937114330        7.2715907680       -0.9600930442
 C        -8.8346404293        7.0736796033       -2.1806433489
 O        -9.1143886000        6.3758117711       -3.0906551124
 C        -7.4649183425        7.9285550831       -2.1806755624
 C        -6.5906030196        7.3919977186       -1.0711162458
 O        -6.8670977494        7.6896830445        0.0965111276
 C        -5.4893906659        6.3775801857       -1.2784217367
 C        -5.0671437025        5.7414031636        0.0449344093
 C        -6.2452643931        4.8718429957        0.5448352061
 O        -7.2193886134        4.6698525294       -0.1275866566
 C        -6.0793999233        4.0802885343        1.9726571601
 C        -5.9038635237        2.6090325191        1.5649137475
 O        -6.9023982135        1.9435253249        1.2913044892
 C        -4.4397337940        1.9140635250        1.5884726113
 C        -4.4448671129        0.5084483076        0.9789394386
 C        -4.6512553150        0.5639834041       -0.5372734112
 O        -4.6511185091        1.6282168584       -1.0580971754
 C        -4.9649002733       -0.7669499114       -1.3291498685
 C        -6.3906341375       -0.4392899484       -1.7673816938
 O        -7.3412247835       -0.8242879919       -1.1396018431
 C        -6.5941173094        0.4337443321       -2.9969980755
 C        -8.0240079102        0.3764448640       -3.4951443514
 C        -8.8395295176        1.1974823687       -2.4867573131
 O        -8.4173135964        2.3131880863       -2.2122027853
 C       -10.3729766138        0.8299690569       -1.9284397836
 C       -10.1578085854        0.3643099138       -0.4509600768
 O        -9.7996576867        1.1883924214        0.3628671588
 C       -10.2152345512       -1.1339696310       -0.0721992005
 C       -11.1154800004        2.1702609850       -1.9957531702
 C       -10.9728511340       -0.2305106678       -2.8352706926
 C        -3.9363029274       -0.9159830524       -2.5109183632
 C        -4.9131713288       -2.0066261584       -0.4569312323
 C        -4.8439373246        4.7088360991        2.7058513663
 C        -7.2887002115        4.3267595593        2.7157870278
 C        -6.9618646259        7.8373093606       -3.6064009964
 C        -7.8269699217        9.4138872256       -1.8937579650
 C       -12.4833589363        7.5688300999        1.2312751046
 C       -10.9612939111        6.4378529844        2.9866416340
 C       -17.9862137930        4.5992592325        2.7726396626
 C       -18.9468564463        4.0424551841        0.5631463841
 H       -18.6164687861        7.8542448852        0.0503257426
 H       -18.9579063119        6.1972582963       -0.6855956592
 H       -17.4976471265        7.0608957312       -0.9608908116
 H       -14.6113667865        3.0315303138        1.4186505254
 H       -15.4622330342        3.9339516996        2.7163672931
 H       -14.7130107312        6.0810537368        1.8429379166
 H       -14.1224403791        5.4987735620        0.2525035503
 H       -11.7031619535        6.4837134461       -1.1172231654
 H       -10.3964176077        5.3190455064       -1.4929293456
 H        -8.9157661280        7.2310205716       -0.1320575491
 H       -10.0657634005        8.3052285078       -1.0044364886
 H        -4.5714978960        6.9675409346       -1.5537180791
 H        -5.6906699152        5.6200365400       -2.1071001555
 H        -4.8458027368        6.5895249440        0.7800432710
 H        -4.1295707774        5.1513938093        0.0023174671
 H        -4.0202117456        1.8218642206        2.5787228375
 H        -3.6205738026        2.5264316989        1.1647138672
 H        -5.3097456563       -0.0106499189        1.4062707725
 H        -3.5324517095       -0.0743538150        1.2672928783
 H        -5.8663152391        0.1433253223       -3.8000146453
 H        -6.2949896758        1.4196583093       -2.7642549410
 H        -8.4580590908       -0.6297001847       -3.5849893433
 H        -8.3108571375        0.9034167910       -4.4592126590
 H        -9.1791950747       -1.5573223226       -0.1933216489
 H       -10.7471141103       -1.6836860462       -0.8574212992
 H       -10.5634473513       -1.2713744801        0.9265928347
 H       -10.9326628065        2.8206632766       -1.1518955319
 H       -12.2047090651        1.9845933929       -2.0116457839
 H       -11.0594577305        2.6629254439       -2.9563514010
 H       -11.9340993777       -0.5876133179       -2.4609136630
 H       -10.3949601422       -1.0837475686       -2.8494010171
 H       -11.2426661547        0.1140528288       -3.7884260390
 H        -2.9933967479       -1.3089008610       -2.0350248333
 H        -3.6461947505        0.0202226101       -3.1158526805
 H        -4.2546660796       -1.7054774657       -3.2187035181
 H        -4.7204422328       -2.9437493306       -1.0440238758
 H        -5.9045295165       -2.0956223898        0.0747170732
 H        -4.1470128138       -2.0401219235        0.2805091444
 H        -3.9552720648        4.7650474716        2.1016067720
 H        -4.6526156024        4.2265963948        3.6377711983
 H        -5.0650818212        5.7744208759        3.1195796614
 H        -7.7825959597        3.4113569793        3.1399454087
 H        -8.1049324108        4.7149497193        2.1146347554
 H        -7.1687501865        5.0537589012        3.5160891669
 H        -6.4418281473        8.7802172593       -3.7076679096
 H        -7.7913626322        7.7208566764       -4.4056235461
 H        -6.2814948488        7.0212541805       -3.7915274149
 H        -8.6495757236        9.8667802688       -2.5101848943
 H        -6.9722059961        9.9952997263       -2.3059476812
 H        -8.0743032674        9.6750991782       -0.8693959697
 H       -11.8133644082        8.4501194597        1.1986262897
 H       -13.3011308308        7.8337129918        1.9428207544
 H       -12.8948470778        7.5049407201        0.2168129168
 H       -10.3743127604        5.6068565250        3.4257103068
 H       -11.5356968833        6.8787327216        3.8600880089
 H       -10.2119195155        7.1809037776        2.7613891503
 H       -18.1528936653        3.5156459712        2.8373938717
 H       -18.8591072123        5.0888745755        3.1175070625
 H       -17.1610640301        4.9954746299        3.3204348488
 H       -18.7704842324        3.9923431604       -0.4858971354
 H       -19.8898474047        4.4683578590        0.8899459374
 H       -18.9326788474        3.0273169520        0.8440674976
 Na       -8.8059895063        3.0284479665        0.0035512999
