117

 C       -18.2528113975        6.8230878726       -0.3585264997
 C       -17.5647529547        6.2631465567        0.9357110091
 O       -16.8380066748        7.0123328594        1.5734329428
 C       -17.7775708991        4.7969339318        1.3660822076
 C       -16.5113179555        3.9044332596        0.9831564095
 O       -16.4800112369        3.1513299297        0.0603199317
 C       -15.0926096923        4.0192129546        1.7698916158
 C       -14.2851516473        5.2295735739        1.3354497794
 C       -12.8513580285        5.1726205508        1.9443010064
 O       -12.4214612428        4.1864521896        2.4807971575
 C       -11.8311292246        6.3698977970        1.6960047157
 C       -10.8514833828        5.6652614652        0.5316048817
 O       -10.0896575603        4.7947410359        0.9019345737
 C       -10.8604639450        6.1513951116       -0.9763779090
 C        -9.8523389380        7.3300734585       -1.0874630027
 C        -8.8645089779        7.1013503057       -2.2239296749
 O        -9.1011440865        6.1781081449       -2.9978497561
 C        -7.5127835018        7.9588638156       -2.3423279165
 C        -6.6561118706        7.4729771674       -1.1085482542
 O        -6.9264266259        7.8833063323       -0.0012060840
 C        -5.4387863463        6.5108429592       -1.3946278788
 C        -5.0979822759        5.6527592992       -0.1070589441
 C        -6.1419446524        4.7768687590        0.4867323772
 O        -7.0933295037        4.6323680714       -0.2840314320
 C        -6.0195152449        4.0066940402        1.8565565380
 C        -5.9264655045        2.4226189974        1.5613844739
 O        -6.8717493913        1.8936236617        1.0099003274
 C        -4.6205480617        1.8423560961        1.9109692288
 C        -4.3458199215        0.5359460936        1.1597484501
 C        -4.5668986670        0.5630017702       -0.3668209146
 O        -4.5531009482        1.6802432443       -0.9611795567
 C        -4.8968390750       -0.7472182784       -1.2018013388
 C        -6.3644734515       -0.4693328289       -1.7249420027
 O        -7.2374847224       -1.0768250653       -1.1109106272
 C        -6.5918852735        0.2878392826       -3.0214778567
 C        -8.0470282881        0.3315255776       -3.4222806071
 C        -8.9539203403        1.2533065961       -2.3968369321
 O        -8.4978908171        2.3395618805       -2.1153019111
 C       -10.3160366384        0.7492780299       -1.8956040966
 C       -10.2462619494        0.2360838767       -0.4358468182
 O       -10.0087408249        1.0614571364        0.4306772834
 C       -10.3103583554       -1.2774054609       -0.1275033448
 C       -11.3564263151        1.9416443042       -1.8855753713
 C       -10.9863278759       -0.2704173466       -2.8298219092
 C        -3.8652337099       -0.8925376284       -2.3815604830
 C        -4.8007687883       -1.9595651853       -0.2731686058
 C        -4.8198399583        4.4959497665        2.7048767535
 C        -7.3324296504        4.2226892843        2.6928073728
 C        -6.7875858172        7.6826083065       -3.6600008840
 C        -7.8597044113        9.4409309144       -2.1127801323
 C       -12.5609452241        7.6610932596        1.3088103673
 C       -10.9768239944        6.6001936204        2.9201770158
 C       -17.9357885201        4.6949341119        2.8831007619
 C       -18.9698632527        4.2150595288        0.6355040477
 H       -18.4540380833        7.8546415524       -0.2278614385
 H       -19.1683506673        6.2501364539       -0.5784260728
 H       -17.5885765368        6.7091241012       -1.2599119721
 H       -14.5266216332        3.0666860518        1.6302192763
 H       -15.2534687612        4.2123701071        2.8258684612
 H       -14.8254255029        6.1349320106        1.6458775366
 H       -14.2082757075        5.2881354321        0.3077890670
 H       -11.9657666806        6.5074350005       -1.1648075435
 H       -10.5531115295        5.3320191207       -1.6500097692
 H        -9.3217647716        7.5875407159       -0.1733663635
 H       -10.4590341260        8.2302496257       -1.4036201255
 H        -4.5299293109        6.9571929392       -1.7788069081
 H        -5.8475841577        5.8246140125       -2.0913063410
 H        -4.5398113031        6.2202807285        0.6053982037
 H        -4.3905755004        4.8582882811       -0.4358400346
 H        -4.5220337384        1.6032731975        2.9999229521
 H        -3.7662202887        2.5265452159        1.8034676867
 H        -4.9868129974       -0.2326681187        1.6064245257
 H        -3.3195674737        0.2455446651        1.2748711521
 H        -6.0299929445       -0.0990092383       -3.8601782775
 H        -6.1829315694        1.3677833838       -2.9423363412
 H        -8.4938879164       -0.6364421398       -3.5907438549
 H        -8.0688503488        0.8333493053       -4.3583792614
 H        -9.3004716503       -1.5745846626        0.0883211074
 H       -10.6120670205       -1.9746583416       -0.9004845692
 H       -10.8293626726       -1.3012822531        0.8412824253
 H       -10.9601326981        2.7178819632       -1.2908085387
 H       -12.3300889198        1.6481667494       -1.4582875642
 H       -11.6519367077        2.3148882839       -2.8812067445
 H       -11.9940986020       -0.5762876735       -2.4921194171
 H       -10.3597141815       -1.2102070273       -2.8557488951
 H       -11.1616102883        0.1323485361       -3.8650538427
 H        -2.8517767597       -0.9681774220       -2.0484502388
 H        -3.9374347608       -0.1600046196       -3.1417382481
 H        -4.1359833224       -1.8039922322       -2.9161647609
 H        -5.1398730894       -2.8416428462       -0.7534126087
 H        -5.3487331207       -1.8799568798        0.5941436683
 H        -3.7258697885       -2.1879690206        0.0017988546
 H        -3.8073625924        4.5811245472        2.2043712790
 H        -4.8398089496        3.9609365076        3.6725751402
 H        -4.9069523450        5.5013580263        2.9458250859
 H        -7.6351846693        3.3227134975        3.1994550891
 H        -8.2197146959        4.5196713225        2.1013548780
 H        -7.2781888963        4.9956954336        3.4755716946
 H        -6.1033934277        8.4742571313       -3.9674090284
 H        -7.5577815719        7.6105362567       -4.3224713299
 H        -6.2864399390        6.6928863240       -3.6846002545
 H        -8.3815613017        9.7798157053       -2.9705946698
 H        -7.0018197567       10.1115912422       -2.1229086457
 H        -8.5009646326        9.6938006105       -1.2352153802
 H       -11.8497458883        8.3711214632        0.8748167410
 H       -12.9627889129        8.0554419775        2.2237458110
 H       -13.3143611351        7.5754730945        0.5150660019
 H       -10.5266099231        5.6872042735        3.2207399308
 H       -11.5591596386        6.8806330183        3.7483925474
 H       -10.1506037152        7.3487100234        2.8775877791
 H       -17.7905426960        3.6624805283        3.1482315555
 H       -19.0327735890        4.7539672908        3.1525141603
 H       -17.3408260682        5.5044371761        3.3382522419
 H       -18.7437304586        3.9826913619       -0.4147175897
 H       -19.8281237684        4.8611912021        0.7979306507
 H       -19.0759643364        3.2218952748        1.1277067853
 Na       -8.7369493460        3.0865722799        0.0686959101
