117

 C       -18.1296705939        6.6180897017       -0.4995078520
 C       -17.5974948762        6.2833417673        0.8740413743
 O       -16.8168511299        7.0172403020        1.4820327126
 C       -17.7949283045        4.8483936899        1.5473624157
 C       -16.4097540182        4.1685472109        1.1554877039
 O       -16.4334053031        3.5361222934        0.1391951475
 C       -15.1142334995        4.2914231183        1.9772708847
 C       -14.2825309633        5.4274388393        1.3448565182
 C       -12.8588888010        5.3622464123        1.8340787680
 O       -12.5411962701        4.3775648351        2.4473645895
 C       -11.7738695254        6.4565041404        1.4746506970
 C       -10.7891839043        5.8608327656        0.4043811701
 O        -9.9747468149        5.0457614000        0.7724839478
 C       -10.8795903913        6.2764083453       -1.0628222218
 C        -9.9259842590        7.4635189417       -1.3578870438
 C        -8.7953034798        6.9445870484       -2.3060517230
 O        -8.9031954654        5.9170381685       -2.9967744816
 C        -7.5265526786        7.8611987736       -2.4415105299
 C        -6.6487752835        7.4714723154       -1.2147146221
 O        -6.9397322128        7.9088296705       -0.1356508595
 C        -5.4118914926        6.5480278262       -1.3872981450
 C        -5.1594565533        5.9378399051        0.0172287875
 C        -6.1866991277        4.8453875728        0.3853175985
 O        -7.1182290168        4.5527260040       -0.3589875701
 C        -5.9650144206        4.1277154201        1.7698121937
 C        -5.8168792618        2.5594015445        1.4696331670
 O        -6.6449614651        2.0040124200        0.7378491222
 C        -4.6571171026        1.7568417717        2.0258800023
 C        -4.5807254293        0.3700009439        1.4481201153
 C        -4.6282996699        0.4565663681       -0.1481405962
 O        -4.3556063840        1.5338742143       -0.6656315904
 C        -4.8276587780       -0.7056329885       -1.0793021000
 C        -6.3465710293       -0.6633094876       -1.6670270684
 O        -7.1897575440       -1.3920123270       -1.1073289703
 C        -6.6313178161        0.2886683085       -2.7799938342
 C        -8.1379177104        0.2395965722       -3.1880942616
 C        -9.0454475913        1.1032475587       -2.2600898578
 O        -8.5120296556        2.1076452930       -1.8684347549
 C       -10.4636468377        0.5509836089       -1.8865411413
 C       -10.2726811526        0.0542017473       -0.4463794471
 O        -9.9176295385        0.8938889754        0.3724263808
 C       -10.4370336404       -1.4201195069       -0.0474518040
 C       -11.3965645958        1.7851416572       -1.9299523725
 C       -11.0292534940       -0.5457939666       -2.8514950524
 C        -3.8408724965       -0.7137535723       -2.2701654589
 C        -4.7325372361       -2.1074637830       -0.4407843749
 C        -4.7967118948        4.6725139324        2.5294257897
 C        -7.2934288179        4.3405921598        2.6842000490
 C        -6.8118200995        7.5579834611       -3.8440336960
 C        -7.8831872669        9.3776120066       -2.3548375244
 C       -12.5309544748        7.7338748403        1.1399486954
 C       -11.0906971720        6.6694302029        2.8335960510
 C       -17.9613401964        5.0019046951        3.0687708633
 C       -18.9545807284        4.0616236464        0.8720221597
 H       -17.4036010605        7.3056644544       -0.9151770800
 H       -19.0438255585        7.1306626490       -0.4044282023
 H       -18.2379972283        5.7455462265       -1.1530643573
 H       -14.6056059479        3.3264406624        1.8298780538
 H       -15.1983866951        4.5557819157        3.0457534976
 H       -14.7468128260        6.4235926849        1.6406608783
 H       -14.3259287051        5.3830690786        0.2084706035
 H       -11.9966370945        6.5086025489       -1.2545517012
 H       -10.5292192605        5.4178699300       -1.5921227229
 H        -9.4703073647        7.9466065826       -0.4529183543
 H       -10.5908610378        8.2316956327       -1.8053185966
 H        -4.5363419535        6.9811324444       -1.9813599719
 H        -5.8277343106        5.6354644080       -1.8858908115
 H        -5.1285476957        6.6210593006        0.8646419120
 H        -4.1604199851        5.3578815829       -0.0586428213
 H        -4.6087105051        1.6834104367        3.1491760610
 H        -3.7465571740        2.1923251849        1.7171266054
 H        -5.5358029643       -0.0890163020        1.7297616250
 H        -3.7237486005       -0.2383703629        1.8116364406
 H        -6.0345662796        0.1172995015       -3.6989184169
 H        -6.3791812201        1.2892325785       -2.4342555806
 H        -8.5935185850       -0.7861824958       -3.3017670828
 H        -8.1950869779        0.7081541981       -4.1796977941
 H        -9.6980044925       -2.0533612718       -0.4733123223
 H       -11.3598975399       -1.6977307541       -0.5719219756
 H       -10.4540860338       -1.5432744827        1.0789147579
 H       -10.8484566819        2.6517421979       -1.4724781361
 H       -12.3784640674        1.6813897611       -1.4769332194
 H       -11.4748816790        2.1220786677       -2.9887811739
 H       -12.0465650272       -0.6249289595       -2.7057590186
 H       -10.5941421200       -1.5444221609       -2.7893522211
 H       -10.8584195160       -0.2067444035       -3.8543123221
 H        -2.8329010180       -0.9145832086       -1.8504065655
 H        -3.8213128144        0.2226366417       -2.7914073702
 H        -4.1176865189       -1.3938139657       -3.1278680856
 H        -4.3074728859       -2.8078907659       -1.1652913390
 H        -5.6432844456       -2.5987342285       -0.0994322727
 H        -4.0604255098       -2.1267845025        0.4541378671
 H        -3.8535369046        4.6792116586        1.9508793711
 H        -4.6227154355        3.9435127765        3.3517598095
 H        -4.8723567311        5.6751072167        2.8113282162
 H        -7.1101054764        4.1657625413        3.7316552782
 H        -8.1622407330        3.7407251570        2.3443786879
 H        -7.6954807346        5.3616229893        2.6550793266
 H        -5.7836289868        7.1193215857       -3.7355742332
 H        -6.8205503979        8.4085738860       -4.4780239165
 H        -7.3549424004        6.6807547870       -4.2558735680
 H        -8.7697156460        9.6790426027       -2.9428639288
 H        -7.0780240655       10.0621535872       -2.5671606806
 H        -8.0067361319        9.6833085149       -1.3002267147
 H       -11.8448490222        8.5111901068        0.8012328265
 H       -13.1337017215        8.0416366561        2.0153084679
 H       -13.2118435629        7.5134555676        0.2914573041
 H       -10.6561666492        5.6840686428        3.1016404351
 H       -11.6522438054        6.9977763352        3.7042981706
 H       -10.2316054858        7.3623730969        2.7742787057
 H       -18.0961210136        4.0653599836        3.5052485177
 H       -18.8584417567        5.5097575671        3.3031422844
 H       -17.0917024438        5.5876572078        3.3347647974
 H       -18.8304241358        4.1685348655       -0.1767689119
 H       -19.7998122432        4.6802504762        1.0781240363
 H       -19.0177039712        3.0156642293        1.1486359043
 Na       -8.9330414008        2.9780515316        0.1855668209
