117

 C       -13.0871306062        8.3208389372       -4.7267690667
 C       -11.7913734158        7.7068546514       -5.2954423062
 O       -11.3596660261        6.6202546440       -5.0506291381
 C       -11.0273595654        8.6163971187       -6.3375676374
 C       -10.3550306279        9.6519051561       -5.4619237462
 O       -10.8625551252       10.7234036364       -5.3120656945
 C        -9.1031709039        9.2015877546       -4.6443765630
 C        -8.9797785188        9.7587808356       -3.1584643594
 C        -7.7182722979        9.0360048770       -2.5610521419
 O        -6.7966165176        8.7265309350       -3.2491174952
 C        -7.7177854147        8.6491812222       -0.9793413537
 C        -8.7107523388        7.4194493343       -0.8814134978
 O        -9.8380974855        7.5487225141       -0.3373438884
 C        -8.3987068284        6.0956724296       -1.5083469985
 C        -9.6939435196        5.4622406488       -1.9779226936
 C        -9.8940377235        3.9282310637       -1.7161034384
 O        -9.0731686991        3.1899032442       -1.2055397059
 C       -11.3335777694        3.3017083793       -2.0930503700
 C       -11.9959193531        2.8513412877       -0.7971228563
 O       -11.7967619289        1.7912017283       -0.2969769953
 C       -12.9973937169        3.9550835465       -0.2669912431
 C       -12.8372030162        3.9598616702        1.3394603156
 C       -11.3971384299        4.1375254922        1.7696415140
 O       -10.4440056152        4.1814788299        0.9607459649
 C       -11.0118301092        3.8893964043        3.2563358684
 C       -10.7573340540        2.2923554225        3.7415069415
 O       -10.1236421341        1.5787257338        2.9871192659
 C       -10.9972380089        1.9138163310        5.1763412314
 C       -10.2360975382        0.6300388902        5.5720957345
 C       -11.1587636924       -0.5894291681        5.1340975391
 O       -12.3183789292       -0.5610642637        5.0610951518
 C       -10.3517477580       -2.0814055146        4.9268097094
 C        -9.1712833082       -1.8915957776        3.9953469140
 O        -8.3564612930       -0.9688057130        4.1413560596
 C        -9.1097448507       -2.7331623689        2.7036093425
 C        -7.9335309675       -2.3061920087        1.8932453689
 C        -8.1530577661       -1.1234334518        1.0077676201
 O        -9.2553676982       -0.6041786551        0.8684268886
 C        -6.9227055008       -0.3528348601        0.1749069194
 C        -6.4335894270        0.7949210569        1.1070407280
 O        -7.2540888869        1.6927914791        1.3886793723
 C        -5.1579405996        0.6067213185        1.9181063947
 C        -5.8650255485       -1.4376872424       -0.0852133217
 C        -7.4989149105        0.1350345424       -1.1718882988
 C        -9.7333759742       -2.6167660680        6.2610999143
 C       -11.5029400937       -2.9648019745        4.5259196416
 C        -9.5774425526        4.3388477147        3.4507241037
 C       -12.0588271622        4.4850923191        4.2430071627
 C       -12.1893257394        4.2792328247       -2.9459654716
 C       -11.0574320285        2.0475910147       -2.9261805091
 C        -6.3750608986        8.1124054769       -0.4410963581
 C        -8.1370493703        9.9386936604       -0.1483563623
 C        -9.8203804195        7.8405275292       -7.0563364125
 C       -11.9842508037        9.2582220892       -7.3683343053
 H       -13.1436626998        9.4451325479       -4.7056961866
 H       -13.3105661232        7.9851840317       -3.7286197395
 H       -13.8891868810        8.0369031385       -5.3742798801
 H        -8.2267949622        9.5631102476       -5.2157676021
 H        -9.0092189687        8.1612510953       -4.5252825233
 H        -9.9215137697        9.6281779490       -2.4889837575
 H        -8.9086744366       10.7916372476       -3.2142325298
 H        -7.8794337006        5.3595261082       -0.8842330511
 H        -7.7332484566        6.2789386537       -2.3296384965
 H        -9.9102922754        5.5604052909       -2.9837710732
 H       -10.4616052980        5.9445075235       -1.4319704873
 H       -14.0173634726        3.8240838982       -0.4343826148
 H       -12.6212521392        4.8943680899       -0.6415981634
 H       -13.3115805266        3.0220936771        1.7355049796
 H       -13.4291943537        4.7736202797        1.8181517174
 H       -12.0044457331        1.6320633217        5.3539908909
 H       -10.7423424520        2.7628890351        5.8005217722
 H       -10.2796397714        0.5611283727        6.6173052975
 H        -9.2966569253        0.5413464455        5.0836648772
 H       -10.0197425365       -2.4744370506        2.1401522922
 H        -9.0736688310       -3.7890045570        3.0299951915
 H        -7.5546820698       -3.1615562746        1.3201838541
 H        -7.0854983920       -2.0663809256        2.5559067225
 H        -5.3602964118       -0.0806399068        2.6806889568
 H        -4.9893141077        1.5761283372        2.5295025079
 H        -4.3146128127        0.3222421249        1.3410929592
 H        -6.2425426227       -2.1607714020       -0.8478740457
 H        -5.7400153630       -2.0706761324        0.8138601809
 H        -4.9439657303       -1.0066568761       -0.4479642877
 H        -7.8985238305       -0.7527263146       -1.7987685893
 H        -6.6543326995        0.6761034610       -1.5861746294
 H        -8.2199939784        0.9173439305       -0.9995744143
 H       -10.4775780335       -3.0199191345        6.9694120759
 H        -9.1102524180       -1.8892413987        6.7835101437
 H        -9.1195751744       -3.5707589074        6.1617140841
 H       -12.0239047720       -3.2957444428        5.4398312910
 H       -11.1296498617       -3.9311554175        4.1661983563
 H       -12.2351306957       -2.5542644789        3.8335900502
 H        -9.5270683474        5.4174018613        3.2654631596
 H        -8.9562900362        3.8637362353        2.6890973139
 H        -9.1077295867        4.0373074297        4.3609014730
 H       -11.7356323021        4.4213089165        5.2357129210
 H       -13.0207184587        4.0262816517        4.2242799725
 H       -12.1137090144        5.6118349212        4.2119652156
 H       -13.1530618703        3.9058725971       -3.0223003958
 H       -11.7177293099        4.5335040712       -3.9221530556
 H       -12.3557889063        5.2488447828       -2.5078492171
 H       -11.5954039686        1.2393847761       -2.4391035095
 H       -10.0273803250        1.6902252911       -2.8060992379
 H       -11.5275983780        2.1981716633       -3.8979815331
 H        -5.6213641445        8.8048788379       -0.8059459622
 H        -6.1553902740        7.1030940895       -0.8543726548
 H        -6.3292782247        8.0928166674        0.6590837363
 H        -7.9089742254       10.8837375725       -0.6845999838
 H        -7.5695300965       10.0731738147        0.7875350722
 H        -9.1875944342        9.9432779936        0.0799226864
 H        -9.4651208144        7.1697566965       -6.2958363526
 H        -9.0400298153        8.5623590205       -7.3537720133
 H       -10.3128124712        7.3949005339       -7.8428552592
 H       -12.6796600354        9.9781235351       -6.9568348788
 H       -12.5314804759        8.4626377991       -7.9034636339
 H       -11.2787116780        9.6176449812       -8.1393852741
 Na       -9.5008930567        1.9183195486        0.7794586485
