117

 C       -18.2035639057        6.3692346596       -0.6022537002
 C       -17.6555761463        6.4932290993        0.8447467547
 O       -17.1542240450        7.5164290110        1.2728072606
 C       -17.7054392024        5.1387027622        1.6562086877
 C       -16.3479824036        4.3630866159        1.2038708428
 O       -16.3599534789        3.6461626403        0.2041312035
 C       -15.0604989735        4.5888109052        2.0028797407
 C       -14.2274218719        5.6980862646        1.4226835982
 C       -12.7743544645        5.5629517587        1.9174675088
 O       -12.3780963063        4.6560451137        2.5978563100
 C       -11.7571099178        6.5886645495        1.2974687558
 C       -10.8271911049        5.6899783713        0.3217042259
 O       -10.2750342725        4.7361847460        0.8702742926
 C       -10.7505703395        5.9792733821       -1.1724017988
 C        -9.8610303204        7.1846344662       -1.4760028953
 C        -8.8373176846        6.7873609589       -2.5327341868
 O        -8.8608381136        5.7418927594       -3.0963580325
 C        -7.5398629806        7.8057369019       -2.7118242737
 C        -6.6557186884        7.5221614758       -1.3947776449
 O        -6.9991374835        8.0235427034       -0.3300577171
 C        -5.5671986758        6.4351314517       -1.4012229987
 C        -5.1868967182        5.8959179087       -0.0613378583
 C        -6.1968297706        4.8837113892        0.4315152137
 O        -7.3126424436        4.8008999583       -0.0814300151
 C        -5.9268462456        4.1755584837        1.7814594682
 C        -6.2763166443        2.7110526901        1.6969549597
 O        -7.3754897560        2.2606534506        1.4676766856
 C        -5.0639504849        1.7145712948        1.9718567059
 C        -5.1406625172        0.3542528260        1.2305568259
 C        -4.4985552457        0.3589951788       -0.1520605920
 O        -4.0697867146        1.3860945614       -0.6735097753
 C        -4.6911227349       -0.9461202910       -1.0445986995
 C        -6.1301453856       -0.8569229117       -1.5681371559
 O        -6.9435387312       -1.4532019093       -0.9597665020
 C        -6.4906429470       -0.0834443276       -2.8910065029
 C        -8.0142666095       -0.0715323519       -3.1449415269
 C        -8.9322613735        0.8122829254       -2.2461588189
 O        -8.5391191698        1.9340017937       -1.9727040048
 C       -10.3753007159        0.3904674836       -1.8755703538
 C       -10.1887407579        0.0980009537       -0.2606027958
 O        -9.7941750562        0.8992416474        0.5927128054
 C       -10.6213968825       -1.2992927012        0.2291926487
 C       -11.4398072287        1.5340033653       -1.9225982389
 C       -10.9404710217       -0.7734159842       -2.7490001160
 C        -3.7193644356       -0.9739769129       -2.2530553226
 C        -4.4919058207       -2.2236421826       -0.2196239091
 C        -4.4871511384        4.4496550153        2.4561524477
 C        -7.0360991252        4.8539810982        2.7830877638
 C        -6.7775558886        7.4208271247       -3.9664141024
 C        -8.0421019986        9.2852294744       -2.7146819154
 C       -12.3980980816        7.8242596410        0.6060381944
 C       -10.8949985471        6.9675144676        2.4839925495
 C       -17.9175109443        5.4427839641        3.1947693780
 C       -18.8730498488        4.2227198688        1.2914164261
 H       -18.0474586177        7.3413491356       -1.0028565109
 H       -19.3099825997        6.2741121754       -0.6091576697
 H       -17.7117403879        5.6353973595       -1.1720784825
 H       -14.4167407955        3.6712791960        2.1181581681
 H       -15.2578988819        4.8329982002        3.0437029199
 H       -14.6915954845        6.7164948995        1.7143350203
 H       -14.2460581876        5.6057888922        0.3105787484
 H       -11.7878323912        6.0510597713       -1.5677461625
 H       -10.3322658913        5.0429113217       -1.6990900805
 H        -9.3418911299        7.6380041144       -0.6197106888
 H       -10.5249474547        8.0319766434       -1.8466026916
 H        -4.6398607786        6.9819679725       -1.7513985706
 H        -5.8577371910        5.7039147958       -2.1872400101
 H        -5.1637769181        6.8334041137        0.5660091636
 H        -4.1552577785        5.4829974105       -0.1755182258
 H        -4.9441181632        1.3728489699        2.9801607626
 H        -4.1088443585        2.1534454182        1.5815615558
 H        -6.2224950141        0.0813524307        1.1480120075
 H        -4.6650641757       -0.4424102362        1.8031369767
 H        -6.1328556015       -0.6132179765       -3.7343237034
 H        -6.0189528347        0.9641320562       -2.8463489080
 H        -8.3526512503       -1.1088394603       -3.0885733859
 H        -8.3414515093        0.2540974516       -4.1669312044
 H       -10.0106153261       -2.1252790590       -0.2481195789
 H       -11.7022452876       -1.4151192088        0.0371716423
 H       -10.4684503304       -1.3842789915        1.2719723475
 H       -11.1954518892        2.4571620693       -1.4790136345
 H       -12.3261131001        1.1248214246       -1.3844847944
 H       -11.5977523447        1.7555097240       -3.0063802531
 H       -12.0345778010       -0.8211186084       -2.6862053558
 H       -10.5602145260       -1.6750706757       -2.3988211422
 H       -10.5791880601       -0.6365380969       -3.7421074697
 H        -2.6559269580       -1.0053140124       -1.9973247631
 H        -3.7830345696       -0.0803820862       -2.9356882949
 H        -3.8766219496       -1.8546301202       -2.8321965348
 H        -4.8124628965       -3.0766400996       -0.8621274616
 H        -5.1167722259       -2.2510463391        0.6748294930
 H        -3.4663352853       -2.4510889600        0.1067566445
 H        -3.6208245526        4.2454614144        1.7981362599
 H        -4.2471839479        3.9296293343        3.3478241434
 H        -4.6229564482        5.4982179719        2.7911541097
 H        -7.2436841413        4.2699976411        3.6894252990
 H        -7.9721459432        5.1136917437        2.3371911161
 H        -6.6289225041        5.7961744469        3.1821316953
 H        -6.2630703418        8.2872066529       -4.3843712923
 H        -7.5439125086        7.0751841189       -4.7091424196
 H        -6.0835115657        6.5759313608       -3.7972796774
 H        -8.6538045441        9.4934835805       -3.5687079785
 H        -7.1683644434        9.9826009125       -2.7738140327
 H        -8.6921779674        9.6010793834       -1.8693073938
 H       -11.5253382851        8.3836022153        0.2531131910
 H       -12.8585901953        8.4222422458        1.3662420050
 H       -13.1508013683        7.4744683041       -0.1109926015
 H       -10.4271086555        6.1486705463        3.0007311848
 H       -11.4080454561        7.5680136234        3.2374913273
 H       -10.0343439515        7.5517524727        2.0612951751
 H       -17.6970709710        4.5517733108        3.7386007171
 H       -18.9615179136        5.7597614994        3.2453663955
 H       -17.2827116247        6.2165546727        3.5124806297
 H       -18.8043577643        3.7998519770        0.2722085353
 H       -19.7696386663        4.8445416653        1.3613701035
 H       -18.9193120100        3.4759124023        2.0920179581
 Na       -8.9740735638        3.0486108514        0.0157452517
