117

 C       -18.2373142885        6.3422935644       -0.5895140152
 C       -17.6676578561        6.5351836811        0.7616877576
 O       -17.2196684999        7.5479897789        1.2588175929
 C       -17.6942248825        5.2087682863        1.6650138099
 C       -16.3957754311        4.4404023173        1.2822810254
 O       -16.3935084985        3.6968156987        0.2928246784
 C       -15.0938014919        4.5867552902        2.0605754215
 C       -14.3113182638        5.7592094258        1.4744258966
 C       -12.8173029969        5.5916363490        1.8728889653
 O       -12.5118567378        4.7796079712        2.7070199756
 C       -11.6870364054        6.6120961497        1.2512607388
 C       -10.9214161250        5.6363232902        0.3523312635
 O       -10.2972953076        4.7384701751        0.9101092743
 C       -10.8007104451        5.8873384209       -1.1340194175
 C        -9.8647103471        7.0581975526       -1.4863751608
 C        -8.7510886869        6.7461446057       -2.5276713115
 O        -8.8492673773        5.7612662702       -3.2531471124
 C        -7.5463307957        7.6611041240       -2.6918526845
 C        -6.6872817688        7.4655406309       -1.3569918276
 O        -6.9205151351        8.0894456025       -0.3510628029
 C        -5.5261687444        6.4553131802       -1.4342291830
 C        -5.2303284551        5.8782434031       -0.0405858933
 C        -6.3134405160        4.9192122388        0.5059669548
 O        -7.3233819311        4.6816999810       -0.1424525712
 C        -5.9683768878        4.2808235535        1.8845833079
 C        -6.2612378982        2.7301327373        1.7080359524
 O        -7.3960168372        2.2957790262        1.5503477119
 C        -5.1076084152        1.7843783199        1.8885374719
 C        -5.2437171279        0.3567520403        1.2345138373
 C        -4.5813495808        0.3638960831       -0.2084244708
 O        -4.0206574945        1.3082233656       -0.6284813090
 C        -4.7044421847       -0.9661246002       -1.0799571258
 C        -6.1738279092       -0.8945773378       -1.5839671751
 O        -7.1094348475       -1.4128198168       -0.9484699435
 C        -6.5511783397       -0.1339335345       -2.8307876712
 C        -8.0247281168       -0.1694285165       -3.1497307852
 C        -8.8631240222        0.8304105016       -2.2533848720
 O        -8.3966574278        1.9426083111       -1.9829741688
 C       -10.3086463455        0.3248829389       -1.7716870625
 C       -10.2295098036        0.0904346711       -0.2492624022
 O        -9.7889107613        0.9342842152        0.4789477968
 C       -10.6424216469       -1.3063439246        0.2668996625
 C       -11.2927714912        1.5029196225       -2.0045463887
 C       -10.9428595996       -0.8405282948       -2.5317768653
 C        -3.6651288304       -0.9567585491       -2.2415959738
 C        -4.4056344714       -2.2203687505       -0.2146436016
 C        -4.5573377506        4.5024159831        2.3055474538
 C        -6.9630787607        4.9181661256        2.8820318060
 C        -6.8159549325        7.4381404833       -4.0251763410
 C        -7.9642646757        9.1866576622       -2.7100799878
 C       -12.3669438352        7.7721200651        0.4676782993
 C       -10.7710733097        7.0189490279        2.3882476384
 C       -17.7703849019        5.5303469926        3.1642947704
 C       -18.7834509668        4.2466552349        1.2818121810
 H       -18.3703155190        7.3325801459       -1.0881560128
 H       -19.2107039442        5.9721924034       -0.4867354092
 H       -17.6053883461        5.7112909464       -1.1372122432
 H       -14.4800411856        3.6474466421        2.0186956857
 H       -15.1736153115        4.7206871753        3.1780279993
 H       -14.7971958369        6.6898642243        1.7828785446
 H       -14.3784059026        5.6633539305        0.3556133512
 H       -11.7317314532        6.0255615507       -1.7237586728
 H       -10.3823181107        4.8505234836       -1.5692402116
 H        -9.3796341004        7.6323746201       -0.6151583329
 H       -10.5996285624        7.8228479477       -1.9003722507
 H        -4.6848746607        7.0306152853       -1.8021812246
 H        -5.7923498659        5.7233328833       -2.2190736694
 H        -5.1630460700        6.8119240943        0.6315251173
 H        -4.2646522267        5.4059913413       -0.1056974379
 H        -5.0346376694        1.5239066709        2.9426760619
 H        -4.1113960989        2.1856732214        1.5054525407
 H        -6.2738450167        0.0066931899        1.3003056226
 H        -4.6478734727       -0.3636123839        1.7916767781
 H        -6.0817241528       -0.5403806774       -3.7738282020
 H        -6.2452235855        0.9292563765       -2.6634382082
 H        -8.4078348923       -1.1474300179       -2.9277355652
 H        -8.2270653316       -0.0081357455       -4.2198501408
 H        -9.8299156784       -1.9222049677       -0.1686787610
 H       -11.6110037327       -1.6271684689       -0.0988427163
 H       -10.5988646037       -1.4703528597        1.3594878619
 H       -10.7419090706        2.4884372753       -1.7480822691
 H       -12.1790034161        1.4450274449       -1.3957926482
 H       -11.4405407785        1.5423316923       -3.0654353656
 H       -11.9962999711       -0.7024402559       -2.6726382417
 H       -10.7553901995       -1.7424525073       -1.9907465072
 H       -10.4826346239       -0.8934354225       -3.4830701998
 H        -2.6334869974       -0.9512388208       -1.8472573981
 H        -3.6392005143       -0.1140615349       -2.9716265728
 H        -3.7071218842       -1.9250846951       -2.7698968284
 H        -4.3917201678       -3.1361571742       -0.8270085323
 H        -5.1526722438       -2.3563180225        0.6447148136
 H        -3.4733109556       -2.1963488297        0.2255616542
 H        -3.9354829894        4.1462221537        1.5337657767
 H        -4.2695632091        3.9877884812        3.2370334782
 H        -4.4305004303        5.5926449080        2.6350157233
 H        -7.1194754813        4.2513933622        3.7607451857
 H        -7.9638251698        5.0526736528        2.4414249737
 H        -6.6564378440        5.8732492204        3.3099401632
 H        -6.5516095397        8.4294529678       -4.3622776828
 H        -7.6142788306        7.0439636847       -4.7702099887
 H        -5.9973438959        6.7493776324       -4.0420500898
 H        -8.7171343095        9.3946840472       -3.5418568133
 H        -7.0508671403        9.7520934830       -3.0169964515
 H        -8.4609932602        9.6359758781       -1.8595800426
 H       -11.5185251234        8.3597310088        0.1595272459
 H       -13.0102997803        8.3947021058        1.0991782898
 H       -12.9097047972        7.2755030946       -0.3030564307
 H       -10.2805730300        6.1429370468        2.9092401011
 H       -11.3004057288        7.6051627356        3.2013934940
 H        -9.9376804007        7.5709905593        2.0077039879
 H       -17.7143337624        4.6701819916        3.7938755452
 H       -18.6450460715        6.0795180357        3.2286846170
 H       -16.9806718971        6.1975660149        3.3903226379
 H       -18.7561737082        4.1214322217        0.2179559766
 H       -19.7417565572        4.6447856998        1.6071426205
 H       -18.6313858771        3.3155710498        1.7657380414
 Na       -8.9634080515        3.0376002011       -0.0236137144
