117

 C       -18.3275151591        6.3665804165       -0.6846592422
 C       -17.7461769035        6.5740361873        0.7453630288
 O       -17.2987617349        7.6317658677        1.1079342483
 C       -17.7296891950        5.2650668962        1.6791665447
 C       -16.4108437746        4.5188904430        1.2310400446
 O       -16.4534072567        3.7617440054        0.2434109432
 C       -15.0777485746        4.7028902263        2.0676603694
 C       -14.2247877367        5.8862326843        1.5852815185
 C       -12.7467126964        5.8599073182        2.0486825400
 O       -12.4184863491        5.3428563227        3.0924547015
 C       -11.7120122918        6.5991507709        1.1628115364
 C       -10.9188003497        5.5346766378        0.3388011933
 O       -10.5104916559        4.5609161132        0.9637394501
 C       -10.6385398827        5.6141779907       -1.1600171472
 C        -9.6655044424        6.8132999564       -1.4540976689
 C        -8.7741479714        6.6123441980       -2.6883109223
 O        -8.9276803937        5.6910717904       -3.4769548923
 C        -7.6052348397        7.5740835046       -2.7574979272
 C        -6.6422693019        7.3655401658       -1.5449194651
 O        -6.8357797017        8.0614293249       -0.5601864653
 C        -5.6278029431        6.3163100875       -1.5682084217
 C        -5.1587091956        5.9472853887       -0.1735969355
 C        -6.1607630981        4.9506524878        0.4836979171
 O        -7.1407404055        4.5801445632       -0.1651692694
 C        -5.9706426087        4.3204696555        1.9304470882
 C        -6.2256007225        2.8051264488        1.7813669825
 O        -7.3720738194        2.4228473823        1.6438827018
 C        -5.0391567580        1.7499794434        1.9292155294
 C        -5.4346527572        0.4990604407        1.1610013140
 C        -4.6265404102        0.3985706048       -0.1259039247
 O        -3.9842944304        1.3266209198       -0.4899965746
 C        -4.7839466449       -0.9197243877       -1.0153388493
 C        -6.2550544335       -1.0392092473       -1.5696012161
 O        -7.1482939366       -1.3993160240       -0.8256747268
 C        -6.4396831983       -0.4466918791       -2.9349699738
 C        -7.9834164710       -0.3244001665       -3.2115349986
 C        -8.6841804042        0.4964706665       -2.1869661685
 O        -8.1542731032        1.5240902789       -1.8030140059
 C       -10.2070483751        0.2549805362       -1.7399407194
 C       -10.1413192285        0.1439160693       -0.1446562083
 O       -10.0103526282        1.1620664910        0.4790099725
 C       -10.4663969067       -1.1834981335        0.4970043658
 C       -11.0973990905        1.4373640442       -2.1562114537
 C       -10.9880256989       -0.9646532172       -2.5037957203
 C        -3.8328731492       -0.9132429912       -2.1996729642
 C        -4.5946019098       -2.2251709673       -0.1179697431
 C        -4.5451711186        4.6284166684        2.5460421978
 C        -7.0865669418        4.8495714758        2.7960488794
 C        -6.7933731531        7.4748842672       -4.0915624043
 C        -8.2387880265        9.0288297297       -2.8188211669
 C       -12.3679739715        7.6759318940        0.1964435844
 C       -10.7381326854        7.2549150554        2.1030034404
 C       -17.7460492699        5.8215323954        3.1114882929
 C       -19.0139145388        4.4468383204        1.6658774339
 H       -18.1390185138        7.2050605324       -1.4304651171
 H       -19.4297243265        6.3746358943       -0.4692424827
 H       -18.0505671420        5.4064224605       -1.0511882231
 H       -14.4734267533        3.8003129886        1.9522045237
 H       -15.2722461686        4.7426297372        3.1036275652
 H       -14.6873323743        6.7884905655        2.0632753577
 H       -14.3845784477        5.9673953983        0.5211626604
 H       -11.4680888600        5.5637398666       -1.7458723551
 H       -10.1270078741        4.6790990582       -1.5037076566
 H        -9.0381266210        6.9761691004       -0.6295082238
 H       -10.1569278168        7.7612359717       -1.6474657332
 H        -4.8048901184        6.7929373825       -2.1726549867
 H        -5.9688550452        5.4461682012       -2.1829575317
 H        -5.1747768583        6.8456952261        0.4900530555
 H        -4.1353178876        5.6305974951       -0.3136217306
 H        -4.8713183607        1.4466926157        2.9286313127
 H        -4.0550524622        1.9944085420        1.4576740205
 H        -6.4994438553        0.5658302627        0.8106366320
 H        -5.4471133363       -0.4195294127        1.7488531312
 H        -6.0784010339       -1.0984184918       -3.6556974888
 H        -5.9558176946        0.5471519573       -3.0504529202
 H        -8.5536147456       -1.2467529706       -3.2569808580
 H        -8.1622999788        0.2009948217       -4.1903838045
 H        -9.6083748600       -1.8906980793        0.4410268772
 H       -11.3801502105       -1.5677319892        0.0855086392
 H       -10.6865232746       -1.0479655551        1.5251803988
 H       -10.7961059828        2.3224850870       -1.5488444781
 H       -12.1297710672        1.2180205545       -1.8956955716
 H       -11.0239445181        1.5799702068       -3.2215295903
 H       -11.8846507790       -1.2687372677       -1.8834802312
 H       -10.3443846015       -1.8163648017       -2.5900963015
 H       -11.4659357603       -0.6035261599       -3.4231326720
 H        -2.8439946695       -0.9942906068       -1.8374721313
 H        -3.8051230309        0.0497847972       -2.7164314886
 H        -3.9368610406       -1.7081931868       -2.8483008777
 H        -4.1352621385       -3.0145242882       -0.7362193856
 H        -5.5678304066       -2.5982946127        0.3199983936
 H        -3.9021967070       -2.1275083768        0.6600113986
 H        -3.7346130407        4.4544785426        1.8808085590
 H        -4.5360132415        4.0677081811        3.4480184920
 H        -4.5330242449        5.7168870348        2.9165298919
 H        -6.8554383366        4.8141124443        3.8676643974
 H        -7.9220726979        4.1948526707        2.7176436576
 H        -7.4483496008        5.8265817743        2.5182821361
 H        -5.8480797329        7.9034191095       -3.9339091305
 H        -7.3579991133        8.0712691543       -4.8938839999
 H        -6.7817683945        6.5093670493       -4.5285965013
 H        -9.0104194731        9.1084245620       -3.5419282705
 H        -7.4994128523        9.7332287419       -3.1405136245
 H        -8.7084593433        9.3384384905       -1.9342869974
 H       -11.6346537740        8.3550097872       -0.2707653899
 H       -13.0148481396        8.1535904915        0.8930840724
 H       -12.9252435348        7.0531380170       -0.4940500767
 H       -10.4270449902        6.5333684502        2.8243758418
 H       -11.2367014049        8.0374545269        2.6435876825
 H        -9.8500864991        7.6229449423        1.6578141929
 H       -17.3496929675        5.0081680481        3.8067165473
 H       -18.7570600387        6.2173471241        3.3650593329
 H       -17.0208879544        6.6523720188        3.1433035218
 H       -19.1268914225        3.7022099450        0.8483880736
 H       -19.8180662192        5.1994038942        1.7557476724
 H       -19.1222016232        3.8863486213        2.6186244328
 Na       -8.8280791058        3.0232673382       -0.0256351619
