117

 C       -18.3835669219        6.2574741706       -0.5978103072
 C       -17.8014635553        6.5916218231        0.7212337901
 O       -17.2786011075        7.6580842525        0.9790367080
 C       -17.7261748198        5.3931764552        1.7701865625
 C       -16.4972235246        4.5468538986        1.3260691691
 O       -16.5157441812        3.8990469054        0.3138701294
 C       -15.0942523848        4.6365368814        2.0157526467
 C       -14.2983160611        5.8803320896        1.5701715304
 C       -12.8272043733        5.9500202104        2.0656768917
 O       -12.4305597849        5.5044437298        3.1237020948
 C       -11.7346066311        6.5924539033        1.1260439293
 C       -10.9146021365        5.4488860698        0.3867639884
 O       -10.5320888464        4.4782064631        0.9898328842
 C       -10.6277168164        5.6065405937       -1.1159348925
 C        -9.6343424801        6.7295797596       -1.4141481538
 C        -8.7465331311        6.5202302160       -2.7122270034
 O        -8.9876136505        5.6262847434       -3.5012148213
 C        -7.5918140131        7.6603301160       -2.8612655456
 C        -6.7039047146        7.4720705125       -1.5758783684
 O        -6.8656225505        8.0624182021       -0.5583403436
 C        -5.5719019017        6.2610381971       -1.6233147954
 C        -5.1166581723        5.8518592175       -0.1426335459
 C        -6.1423311625        4.8859659296        0.5097254333
 O        -7.1008820179        4.6233943888       -0.1673520225
 C        -5.9699023224        4.3823285774        1.9848561640
 C        -6.1738492040        2.8092091499        1.8660466570
 O        -7.3038379071        2.4047314398        1.6007275492
 C        -5.1164277368        1.7485355477        2.0317888525
 C        -5.4005376456        0.4587538259        1.2202512062
 C        -4.6491058212        0.3860482632       -0.1703637241
 O        -3.9530962766        1.3146929509       -0.5086724061
 C        -4.7277769031       -0.9808802723       -1.0249509551
 C        -6.2541568086       -1.0089090839       -1.6008324470
 O        -7.2450610325       -1.3228348687       -0.8739332580
 C        -6.5484321014       -0.5666978552       -3.0084784665
 C        -8.0552267551       -0.3974013066       -3.2715384635
 C        -8.7024859231        0.5317040885       -2.2055396996
 O        -8.1030012557        1.4262012960       -1.6091348313
 C       -10.2463407968        0.2583842891       -1.7853017035
 C       -10.2538082433        0.0895376339       -0.1910153424
 O       -10.1168394435        1.1085183498        0.4304149888
 C       -10.3898908560       -1.1842851693        0.5314396751
 C       -11.1114082765        1.5105694785       -2.1717053993
 C       -10.8761718545       -1.0262875837       -2.3394239791
 C        -3.6995047184       -1.0301895481       -2.1233568230
 C        -4.5272968253       -2.1898502007       -0.0817588134
 C        -4.5568182628        4.6353912939        2.5968864125
 C        -7.1764523565        5.0687191641        2.6877105683
 C        -6.7760057365        7.4676398028       -4.2183136537
 C        -8.2479737043        9.0385773400       -2.8836943015
 C       -12.4368158586        7.6298560457        0.0877576880
 C       -10.6055339384        7.3464965758        2.0246675447
 C       -17.5799239443        5.9724506854        3.2645778613
 C       -18.9919057338        4.4719235399        1.5082293179
 H       -17.9889770578        6.9765640055       -1.3494458545
 H       -19.4328633892        6.3613841276       -0.5594864578
 H       -18.1154707150        5.2228856590       -0.8273043091
 H       -14.4889713405        3.7168496863        1.8675417808
 H       -15.2903944807        4.7130518463        3.1313443674
 H       -14.9159966236        6.7617391181        1.8376457491
 H       -14.2927075420        5.8163644813        0.4267295257
 H       -11.5892360921        5.6368586495       -1.6778876814
 H       -10.1866687701        4.6794144866       -1.6461666058
 H        -9.0195417073        6.8987209718       -0.4837360924
 H       -10.0739714001        7.6986463802       -1.7223144443
 H        -4.7470246478        6.5426252488       -2.2937767263
 H        -6.1099242169        5.4131450404       -2.1530671769
 H        -4.9770521772        6.7999060232        0.5176349657
 H        -4.1290535969        5.4276326680       -0.2652391357
 H        -5.0413861436        1.4568137482        3.0856654449
 H        -4.0793266754        2.0458363754        1.6688907188
 H        -6.4782742601        0.2576501385        1.0943522073
 H        -5.0657669376       -0.4040713097        1.8203817804
 H        -6.2212219142       -1.4088610312       -3.7266910001
 H        -6.0528002094        0.3703259463       -3.2889515879
 H        -8.6702179515       -1.3078002534       -3.2032656898
 H        -8.2371810217        0.0330625004       -4.2751320931
 H        -9.5062209009       -1.7197527554        0.2334949231
 H       -11.3260800280       -1.6962844517        0.4252279743
 H       -10.2975059655       -1.0149582061        1.6399707866
 H       -10.8126923982        2.2952641318       -1.3763824028
 H       -12.1670396150        1.3406410780       -2.1175967237
 H       -10.9188847503        1.8035239152       -3.1796860127
 H       -11.8699532660       -0.9670060162       -2.0040072409
 H       -10.4288937528       -1.9241586247       -1.9078336738
 H       -10.9921446498       -1.0115438114       -3.3890988090
 H        -2.7096581506       -1.1488242409       -1.7001035636
 H        -3.6559148191       -0.1001475092       -2.6369022554
 H        -3.8091861135       -1.8544043972       -2.8453155615
 H        -4.3392965659       -3.1168894649       -0.6570648079
 H        -5.4596011719       -2.3441691441        0.5406590481
 H        -3.6574203192       -2.1073471883        0.5480621679
 H        -3.8268800176        4.5365668359        1.8396219977
 H        -4.4238216809        3.9849895857        3.5028367452
 H        -4.5089913157        5.6948047978        2.9122324540
 H        -7.2313821813        4.9211212455        3.7570425789
 H        -8.0333333032        4.4825967255        2.3304627366
 H        -7.3650535676        6.0784131395        2.3988477329
 H        -5.6844076764        7.5883397716       -4.0635112253
 H        -7.1293083860        8.1583884737       -5.0027109035
 H        -7.0365489779        6.5120378688       -4.6600962366
 H        -9.1066830002        9.2068105264       -3.5763752792
 H        -7.5550569072        9.8194952645       -3.1075374285
 H        -8.6253423054        9.2058418852       -1.9096664822
 H       -11.6560593192        8.2370035850       -0.3623368090
 H       -13.0890324487        8.1744081620        0.7886948513
 H       -12.9579548423        7.0474265434       -0.6385342147
 H       -10.2604129922        6.6211949364        2.7940153626
 H       -11.0450452913        8.2026613102        2.5651827420
 H        -9.7582821457        7.6768596903        1.5185070827
 H       -17.3008457575        5.0999781515        3.8756803261
 H       -18.5160346269        6.3704628619        3.5954508366
 H       -16.7670744753        6.7207883279        3.3659898452
 H       -18.7164934122        3.7967437909        0.6838726456
 H       -19.9427067831        5.0491954215        1.3851273804
 H       -19.1592360237        3.8002171162        2.3616282294
 Na       -8.7868582650        3.0429540315        0.0026328447
