117

 C       -18.5466226745        6.2306999057       -0.5649307920
 C       -17.6877417916        6.6617374330        0.6801910232
 O       -17.0068728304        7.6644962389        0.5971535870
 C       -17.6454988104        5.7011434236        1.9750002399
 C       -16.4980513362        4.7148497479        1.5174131482
 O       -16.6927716428        3.8907678928        0.6232822411
 C       -15.0825196742        4.7215020693        2.1586702856
 C       -14.2420918763        5.5820072214        1.2075740600
 C       -12.9347506905        6.0599121189        1.8709480385
 O       -12.7475870695        5.9693340855        3.0630394418
 C       -11.8376698057        6.7773226723        0.9206881363
 C       -11.0352320613        5.5362446124        0.2165905459
 O       -10.6288600384        4.5948798140        0.9094478376
 C       -10.5645524066        5.6507666584       -1.1994827813
 C        -9.3638047053        6.5426701628       -1.3504925697
 C        -8.6078663605        6.3646929862       -2.6682959837
 O        -8.9358067961        5.5513242144       -3.5007198288
 C        -7.4392718266        7.3427660238       -2.9567778922
 C        -6.4961400105        7.2186720464       -1.7354840478
 O        -6.7260612887        7.8540101019       -0.6897637361
 C        -5.3454118310        6.1985150099       -1.7736859663
 C        -5.0444284857        5.6007447221       -0.4833642622
 C        -6.2257202956        4.7967674875        0.0772518699
 O        -7.2060536358        4.5236198374       -0.5738850979
 C        -6.1261645135        4.3410116137        1.7077910808
 C        -6.1687868979        2.7671272289        1.6484741890
 O        -7.1999977257        2.1442406945        1.4546062346
 C        -4.8960629343        1.9658397486        1.9070890877
 C        -5.0121625920        0.5128465595        1.4502314272
 C        -4.6149858622        0.3612381834       -0.0109826127
 O        -4.2197030992        1.3194398339       -0.6206550079
 C        -4.7689107695       -1.1116356655       -0.7229141059
 C        -6.2691171167       -0.9743311806       -1.2200799306
 O        -7.1760439617       -1.0927813516       -0.4749635982
 C        -6.5401483587       -0.3672560868       -2.6190352827
 C        -8.0175587442       -0.4282641289       -3.0778028124
 C        -8.8311219810        0.4653930031       -2.0144839984
 O        -8.2999002714        1.4294619270       -1.5519376403
 C       -10.3290773790        0.1501747359       -1.5597102319
 C       -10.3837259672        0.1561847066       -0.0375577733
 O       -10.5343652801        1.2199466295        0.6052522192
 C       -10.1973088713       -1.2543227610        0.5615580779
 C       -11.1196428024        1.3879868127       -2.0716718846
 C       -10.8014515622       -1.1186074778       -2.3245187002
 C        -3.6674111741       -1.1267112661       -1.8642192690
 C        -4.4952793604       -2.2247828055        0.3176635935
 C        -4.8087143848        4.9368886196        2.3861060480
 C        -7.2943279493        4.9127787431        2.4103093900
 C        -6.7495658337        7.0200996536       -4.2864043123
 C        -8.0678422009        8.8342046871       -3.0029246420
 C       -12.4438925052        7.7488221440       -0.1231594692
 C       -10.8283673919        7.5774591074        1.7449057732
 C       -17.3248572190        6.4372803159        3.2545893717
 C       -18.9010816181        4.7639161078        2.0180415435
 H       -18.6087684239        7.0792040175       -1.1830106070
 H       -19.5070096295        5.7818697439       -0.2674742878
 H       -18.0241260093        5.4304718633       -1.1151421981
 H       -14.6618439990        3.6876812121        2.1363632751
 H       -14.9654487696        5.3020517733        3.1046312559
 H       -14.8529182716        6.3579739552        0.7238167917
 H       -13.9477972214        4.9603863267        0.3027083438
 H       -11.3939365856        6.0488246306       -1.9360798429
 H       -10.3175261588        4.5909293308       -1.4606947758
 H        -8.6751130327        6.3317138544       -0.4810445944
 H        -9.5932732824        7.6305316668       -1.2834350414
 H        -4.5238574199        6.7964187859       -2.2377204976
 H        -5.6013407502        5.4592243720       -2.5502211605
 H        -4.9349345241        6.4433360665        0.2192106398
 H        -4.0084892141        5.1042072275       -0.5730247077
 H        -4.7691896760        2.0333692871        3.0532782024
 H        -4.0503044207        2.4726740310        1.4777699818
 H        -6.0348634224        0.1514762661        1.5896747711
 H        -4.4802602211       -0.1371233666        2.1762088964
 H        -5.8697841006       -0.7687070720       -3.4438490816
 H        -6.2287304256        0.7073063232       -2.5444231026
 H        -8.4107408317       -1.4571255604       -2.9908153366
 H        -8.1583832829       -0.0498479125       -4.0906106376
 H        -9.1740414747       -1.5876811494        0.3435723779
 H       -10.9418326606       -1.9855725778        0.1632708671
 H       -10.3885367511       -1.2257018327        1.6074155845
 H       -10.5945360477        2.2395048022       -1.8250848018
 H       -12.1573917767        1.3737474812       -1.6430182367
 H       -11.2472072348        1.2934191984       -3.1950190066
 H       -11.8472481555       -1.3543907315       -2.1584247116
 H       -10.1998439929       -1.9113804261       -1.9270629548
 H       -10.5595737690       -1.0117336518       -3.3929090859
 H        -2.7326296500       -1.4391970989       -1.4552775649
 H        -3.5604136089       -0.1406684609       -2.2716230856
 H        -3.9138864829       -1.7076788392       -2.7203467610
 H        -4.4894081080       -3.2445826818       -0.1052641019
 H        -5.2668462975       -2.2242993375        1.0595964036
 H        -3.5049702086       -1.9724088785        0.8286716659
 H        -4.0782753470        5.1131256926        1.5646290896
 H        -4.4126182550        4.2908428717        3.1546855214
 H        -5.1504439007        5.8605080490        2.7626218920
 H        -7.0587046050        4.6754844169        3.4278972144
 H        -8.2415170632        4.4566979006        2.2077657331
 H        -7.3403828561        6.0060312653        2.3483372733
 H        -6.1361757189        7.8311517622       -4.7095488659
 H        -7.5263886425        6.8299525516       -4.9862233532
 H        -6.0675144139        6.1380526392       -4.2000433886
 H        -8.7934192818        8.8465420349       -3.7397643748
 H        -7.3437321669        9.5871135166       -3.2291264160
 H        -8.4558941687        9.2415669174       -2.0708233920
 H       -11.6082985554        8.1398378573       -0.6849559551
 H       -12.9809598302        8.5043700201        0.4454057169
 H       -13.0572794561        7.0703910141       -0.7292342117
 H       -10.3368991957        6.9640225679        2.4327926195
 H       -11.2969527759        8.3416986715        2.2922231696
 H       -10.1140889030        8.1501317997        1.0939636942
 H       -17.1303756960        5.8539672823        4.1389546518
 H       -18.2589222870        6.9855666215        3.5463091962
 H       -16.5095547560        7.1162237380        2.9929693183
 H       -19.0781957183        4.2422890263        1.0634674594
 H       -19.8279804853        5.3478026973        2.1153569332
 H       -18.7540478668        4.0165783781        2.8399041927
 Na       -8.9981861492        2.9188329242        0.1636871005
