117

 C       -18.5817482378        6.2069286076       -0.4293231110
 C       -17.7020229940        6.7267060477        0.6255902226
 O       -16.9447826305        7.6679439420        0.5372561421
 C       -17.6025368986        5.7588218761        1.8957809423
 C       -16.5133314489        4.6484256951        1.5027498371
 O       -16.7924860875        3.7430738779        0.7031537487
 C       -15.0844962414        4.7107018756        2.1017651371
 C       -14.1465398331        5.5779898214        1.1392794748
 C       -12.8980626779        6.1117610912        1.8302884922
 O       -12.7748951416        6.0250895999        3.0246453008
 C       -11.8085286735        6.7712385771        0.9299729958
 C       -10.9503911161        5.6219313460        0.2036969362
 O       -10.6773804149        4.6141373980        0.8635892983
 C       -10.5134316040        5.6522679556       -1.2716040595
 C        -9.3181458536        6.5222419317       -1.4083788870
 C        -8.6283371821        6.3619244624       -2.7788452679
 O        -8.9550361404        5.4712362722       -3.5460021464
 C        -7.4260544590        7.3522260066       -3.0798423172
 C        -6.4230022273        7.2461052244       -1.7776508734
 O        -6.6619728371        7.7979776977       -0.7225081927
 C        -5.3948202366        6.1255452148       -1.8672945382
 C        -5.0342446769        5.4882022186       -0.5028625316
 C        -6.1925770821        4.8051264616        0.1734238909
 O        -7.1588287387        4.4509083337       -0.5352785237
 C        -6.1632911429        4.3596607771        1.6786930593
 C        -6.1225130696        2.7322933614        1.6727625929
 O        -7.1213546234        2.2048987027        1.2859926921
 C        -4.8081898255        1.8992903763        2.0410314088
 C        -4.9238666373        0.4405957772        1.4756130658
 C        -4.5900058124        0.3548623457       -0.0357818029
 O        -4.2444161330        1.3152623517       -0.7030606305
 C        -4.6910312857       -1.0193310472       -0.6638912179
 C        -6.2235637235       -0.9828018490       -1.1715198377
 O        -7.1364975855       -1.1457262147       -0.4091725422
 C        -6.4716684243       -0.4142891022       -2.5467582263
 C        -7.9708579649       -0.3421439696       -2.8700198559
 C        -8.8200928390        0.5519150781       -1.9400791974
 O        -8.3004871712        1.5779414976       -1.5763481474
 C       -10.3201785516        0.2259432503       -1.6339143000
 C       -10.4207223485        0.1115326371       -0.0272500385
 O       -10.4969039363        1.1083433445        0.6650327912
 C       -10.2578365075       -1.2254672227        0.7036953888
 C       -11.3919183355        1.3499915140       -2.1190724420
 C       -10.8292348873       -1.1199501695       -2.3805991836
 C        -3.6916970654       -1.2036557344       -1.7822083222
 C        -4.5075933048       -2.1410722918        0.3660873918
 C        -4.8873290382        4.8373969758        2.4704982167
 C        -7.4430614219        4.9567810600        2.3374434126
 C        -6.8052652726        7.0119932949       -4.3869600724
 C        -8.0041445757        8.7739955085       -3.0449457860
 C       -12.5103468807        7.7442081612       -0.1313898827
 C       -10.8052552716        7.6452990981        1.7899449682
 C       -17.4161425841        6.4722615041        3.2656454401
 C       -18.8879174136        4.9319031088        2.1220679748
 H       -18.5530057466        6.8989824829       -1.2894486265
 H       -19.5431795932        5.9127455484       -0.0560285002
 H       -18.1369814733        5.3173743581       -0.6852431542
 H       -14.6384167396        3.6604798277        2.1988110967
 H       -15.0535752944        5.3358398785        3.0043698688
 H       -14.7756250136        6.3546162882        0.6102913466
 H       -13.8053926922        4.9883961015        0.2823739004
 H       -11.3132749612        6.0212252557       -1.8899874194
 H       -10.3017122551        4.5398736467       -1.5097112960
 H        -8.6221004816        6.3572131257       -0.5168287492
 H        -9.6379371060        7.6348269110       -1.3365070980
 H        -4.5683782743        6.5532503986       -2.4290273544
 H        -5.8175156084        5.4160982695       -2.5266264227
 H        -4.6608187061        6.2287714947        0.1909170044
 H        -4.1536949920        4.8044321527       -0.7394459139
 H        -4.7031739604        1.9200145962        3.1560560662
 H        -3.9173104411        2.4202295253        1.6299398700
 H        -5.8163448375       -0.1080234468        1.7870882491
 H        -4.1622250705       -0.1039337170        2.0315780316
 H        -6.0081035422       -0.9598642121       -3.3381319412
 H        -5.9564977123        0.6329531180       -2.6108550123
 H        -8.3993462971       -1.3288282846       -2.8334332036
 H        -8.0509093584        0.0583871332       -3.8803070674
 H        -9.2216136253       -1.6202476047        0.5134728512
 H       -10.9881422519       -1.9812217443        0.3856103968
 H       -10.4408012282       -1.0028296149        1.7482876920
 H       -11.1187020824        2.3667220023       -1.7317883241
 H       -12.3015394534        0.9890289754       -1.6323252952
 H       -11.5597898852        1.3976552012       -3.2038730575
 H       -11.9194878058       -1.1724285836       -2.3492806884
 H       -10.4664477998       -1.9563650497       -1.8744713235
 H       -10.4447451950       -1.2179159003       -3.3682422048
 H        -2.7861392074       -1.6401263675       -1.3646187255
 H        -3.4334194495       -0.2204719451       -2.2666111081
 H        -4.0690081975       -1.7859942629       -2.5939356163
 H        -4.4736916112       -3.1876123957       -0.0215292808
 H        -5.3258749837       -2.0965788896        1.1512981333
 H        -3.6196576699       -1.9080118699        0.8516191379
 H        -3.9720754611        4.8391208605        1.8973861601
 H        -4.8453829527        4.1942079277        3.3170238670
 H        -5.2281771905        5.8670147182        2.8500153134
 H        -7.3446064645        4.9197528641        3.4438588269
 H        -8.3386350165        4.4351033220        2.0607274387
 H        -7.4959982876        6.0108835924        2.0783089409
 H        -6.2402967876        7.7889604806       -4.8476448972
 H        -7.6839278088        6.8067190253       -5.1121184650
 H        -6.1405153878        6.1638748315       -4.3151402474
 H        -8.8731824617        8.7926664189       -3.6952555713
 H        -7.3117483039        9.5908585524       -3.3345904077
 H        -8.2752582153        9.1061416394       -2.0517248404
 H       -11.7349439256        8.2571181052       -0.7228483277
 H       -12.9935141696        8.4282302256        0.5378636313
 H       -13.2246259522        7.1222407892       -0.6807205463
 H       -10.3461442080        7.1100322633        2.6291439813
 H       -11.3937714532        8.4522834227        2.2635122739
 H       -10.0885536142        8.2048902086        1.1777885910
 H       -17.2779876201        5.7857553714        4.0868330260
 H       -18.3642577453        6.9631790950        3.5122836612
 H       -16.6355687653        7.1805403232        3.2229659592
 H       -19.1337548001        4.0762309981        1.4904858258
 H       -19.7446714672        5.5841714563        1.9953795361
 H       -18.8198410837        4.6298400528        3.1716054109
 Na       -9.0018552003        3.0140553432        0.1736683979
