117

 C       -18.6602016833        6.2769186165       -0.5308826745
 C       -17.7338989929        6.5937214951        0.6961640042
 O       -16.8681791468        7.4655391575        0.5910162667
 C       -17.6596466565        5.7416305912        2.0108244406
 C       -16.5510272771        4.6013899647        1.6132747127
 O       -16.8973854872        3.6397635326        0.9662262442
 C       -15.0809358090        4.8072638138        2.0956217965
 C       -14.2215650150        5.5867982032        1.0875132690
 C       -12.9818721349        6.1824296943        1.7659476126
 O       -12.7543117271        6.1234822850        2.9588134641
 C       -11.8396798437        6.8099329540        0.8590478309
 C       -11.0187847834        5.6282372680        0.1836543200
 O       -10.5788673375        4.7330232768        0.8615013409
 C       -10.6384792921        5.6710164296       -1.2984344954
 C        -9.3465990652        6.5767071798       -1.4800624018
 C        -8.6515111356        6.3666334925       -2.8525851268
 O        -8.9089055487        5.4511718008       -3.6084169892
 C        -7.4111945645        7.3231914660       -3.1772326538
 C        -6.3523933754        7.0075956625       -2.0122819674
 O        -6.4471412589        7.7034504308       -1.0048716663
 C        -5.4318797839        5.7821968787       -1.9641611361
 C        -4.9957703548        5.4218358142       -0.5228510666
 C        -6.1263552184        4.6595953503        0.1289758684
 O        -7.1379472444        4.4755473052       -0.4638705680
 C        -6.1512471740        4.2901302168        1.6866713489
 C        -6.1432791317        2.6853270379        1.6193641211
 O        -7.0998422421        2.1117798066        1.1061287159
 C        -4.8409382231        2.0151532279        2.1028931867
 C        -4.6732289775        0.5721841733        1.5862128294
 C        -4.5114298299        0.5171755582        0.0876839828
 O        -4.2671528219        1.4505563730       -0.6362502732
 C        -4.6638902783       -0.9903565605       -0.5424397835
 C        -6.1902093698       -1.0103971795       -1.0124431170
 O        -7.0726541771       -1.3866785740       -0.2695671432
 C        -6.5411915299       -0.3045883348       -2.3408345548
 C        -8.0580774612       -0.3551730835       -2.6777774428
 C        -8.8966485847        0.6202783643       -1.9049171964
 O        -8.5839041631        1.7635448925       -1.6612732853
 C       -10.3470789651        0.2282531105       -1.5750388920
 C       -10.3148712971        0.1645250385        0.0084514754
 O       -10.2550842205        1.2083643890        0.6351943337
 C       -10.4618952438       -1.2331609178        0.6264046783
 C       -11.2984387194        1.3396236664       -1.9736722955
 C       -10.7299335532       -1.1871793855       -2.2487970708
 C        -3.7613359797       -1.2885492979       -1.7354298638
 C        -4.6351485645       -2.1546845819        0.4662567635
 C        -5.0094669233        4.9649862045        2.5278678428
 C        -7.4399071548        4.7068346624        2.3445402317
 C        -6.8091914545        6.9893525089       -4.5489161370
 C        -7.8462952862        8.7961188270       -3.1072515615
 C       -12.4397693227        7.7226353443       -0.2353374727
 C       -10.8437686333        7.5237515844        1.7504420139
 C       -17.0599817305        6.6776603496        3.0420384610
 C       -19.0483688958        5.1159371877        2.2017399509
 H       -18.0592248488        6.5266173685       -1.3538666116
 H       -19.5386322199        6.9348756095       -0.4743270704
 H       -19.0859553992        5.2142017544       -0.5907677275
 H       -14.6373372327        3.8721973008        2.0604596551
 H       -14.9758416105        5.2177459287        3.0933284437
 H       -14.7440768635        6.3436404051        0.5817704384
 H       -14.0359475543        4.8615399149        0.2895802318
 H       -11.4522683868        6.2724096616       -1.7413546357
 H       -10.5668360906        4.7343989342       -1.6725944564
 H        -8.6152823112        6.3794611312       -0.7490681999
 H        -9.5978247544        7.5729954996       -1.3672486611
 H        -4.5427186574        6.0685349383       -2.5234540827
 H        -5.9440403466        4.9590750684       -2.5321209282
 H        -4.7029932434        6.3086619704        0.0487835223
 H        -4.0882403806        4.9179414840       -0.6688613879
 H        -4.8038262213        2.0546166716        3.1865814503
 H        -4.0171087627        2.6336326853        1.7380707316
 H        -5.5874871662       -0.0041542514        1.7869922788
 H        -3.9567912630        0.0462955161        2.2329602478
 H        -6.0055632546       -0.8026452213       -3.1821793517
 H        -6.1701930731        0.6425376852       -2.3977036542
 H        -8.5145182876       -1.3454279588       -2.5222037933
 H        -8.1785477479       -0.0273146072       -3.7342895647
 H        -9.6054228718       -1.7786208717        0.2779355307
 H       -11.2957777819       -1.7649772044        0.1242777512
 H       -10.5549891638       -1.1814413019        1.7170697484
 H       -10.9982989492        2.1283171572       -1.3759840772
 H       -12.3551939956        1.0665920367       -1.7692917201
 H       -11.0733911536        1.7010112803       -2.9863656741
 H       -11.6581308820       -1.5329753013       -1.8169654411
 H        -9.9931146249       -2.0258008590       -2.1649783252
 H       -10.8358785653       -1.1305268666       -3.3592771674
 H        -2.7079169965       -1.2362590965       -1.3936827801
 H        -3.9134054256       -0.5144870474       -2.4727929027
 H        -3.9728854575       -2.2671389357       -2.2710720103
 H        -4.7450404299       -3.0250114087       -0.1167788279
 H        -5.4078919129       -2.1049142879        1.1523239939
 H        -3.6349703205       -2.2579278973        1.0283187332
 H        -4.1780245279        4.2571210350        2.4121576114
 H        -5.3019706891        5.0733792267        3.5851115205
 H        -4.8232071878        5.9063361982        2.1760070822
 H        -7.4457003567        4.6373412496        3.4246123419
 H        -8.2517748220        4.1107293132        1.9193934417
 H        -7.5721423346        5.7811199038        2.0851588898
 H        -5.8553090063        7.5481871136       -4.6812011016
 H        -7.3952260860        7.3196414390       -5.3059885297
 H        -6.5129352675        5.9409784201       -4.6820292787
 H        -8.8197209046        8.9550046358       -3.5990405285
 H        -7.1015222832        9.4222649822       -3.6124997923
 H        -7.8723362270        9.2680889899       -2.0829125026
 H       -11.6492248626        8.3520921480       -0.5917514847
 H       -13.1471441189        8.3596789102        0.2944530792
 H       -12.9570628308        7.0510345084       -0.8978756913
 H       -10.5415176333        6.8310223636        2.5319874335
 H       -11.3130638780        8.3466912052        2.2924507223
 H        -9.9684654560        7.9746369128        1.2171176296
 H       -16.8762312532        6.0834663320        3.9271349076
 H       -17.7371547998        7.5042500998        3.2887027331
 H       -16.1410506282        7.2063791021        2.7122465591
 H       -19.2020780084        4.4409701261        1.3821080667
 H       -19.8961163863        5.7857594607        2.1664862122
 H       -19.1267059772        4.5356983221        3.1079600647
 Na       -9.1535912700        3.1663392200        0.1665504516
