117

 C       -13.1928276949        7.9296814542       -5.0523663146
 C       -11.7515588002        7.5694400153       -5.4555044957
 O       -11.1630147727        6.5818039736       -4.9989359263
 C       -11.0216326080        8.6122035524       -6.4408878327
 C       -10.4327755535        9.6578872146       -5.3539575879
 O       -11.1177987352       10.6309630686       -4.9911472478
 C        -9.1107879600        9.3531933374       -4.7848802952
 C        -9.0897119582        9.4312796806       -3.2750445620
 C        -7.7365435972        8.9450178753       -2.7649505325
 O        -6.6505258534        8.9850071656       -3.3425522183
 C        -7.7818290205        8.5014417671       -1.2418581371
 C        -8.7134816059        7.3311167374       -0.9876672676
 O        -9.7066612252        7.5147709385       -0.3594797389
 C        -8.4654300595        6.0107893468       -1.8340040707
 C        -9.7661096247        5.3612324681       -2.3735302397
 C       -10.0313360385        3.9664946448       -1.8145500594
 O        -9.2294976026        3.4393431275       -1.0474276739
 C       -11.3779998205        3.2698913439       -2.0849821859
 C       -12.0758219155        2.9025712633       -0.7183688589
 O       -11.7489454538        1.8624390928       -0.1269996849
 C       -13.2656772567        3.7028039222        0.0513170340
 C       -12.8423186652        4.0419130985        1.5335294630
 C       -11.3218053751        4.0444746861        1.8575391012
 O       -10.6228998962        4.4768033820        1.0008785339
 C       -10.8492258054        3.8749030897        3.3637481863
 C       -10.5941058091        2.2988039872        3.6826181991
 O       -10.3863607562        1.4564335496        2.8433301195
 C       -10.7013511222        1.9596980140        5.2866484652
 C       -10.0549511512        0.6365914918        5.8778003442
 C       -11.0382110868       -0.5790560194        5.4754364773
 O       -12.2576011816       -0.5403639642        5.7498529256
 C       -10.2686826040       -1.9057899177        5.0728594502
 C        -9.1253130845       -1.6657783094        4.0256593235
 O        -8.3227091704       -0.7799885938        4.1431915056
 C        -9.0766162008       -2.6992509800        2.8168266605
 C        -7.8839617051       -2.3523216329        1.8478912822
 C        -8.1446230657       -1.1390453357        0.9136787215
 O        -9.2609992471       -0.7509215276        0.7229121233
 C        -6.8771551584       -0.4498634209        0.3031651556
 C        -6.5188182393        0.7913784785        1.2247109496
 O        -7.3836602033        1.5782946087        1.4371268782
 C        -5.1021375892        0.9992503118        1.7080807078
 C        -5.7141098430       -1.4109131981        0.0844038352
 C        -7.3130815972        0.1476603902       -1.0617345220
 C        -9.7242435831       -2.3282124897        6.4452278439
 C       -11.2320665014       -2.9684086566        4.5907107895
 C        -9.5242810158        4.6642999961        3.5530560048
 C       -11.8641225290        4.5407681344        4.2680852044
 C       -12.2690596233        4.1072483465       -2.9397150748
 C       -11.0422556790        1.9596186606       -2.8918938749
 C        -6.2914434456        8.1997358969       -0.8523533378
 C        -8.3394763601        9.6665534645       -0.4345157137
 C        -9.9661510210        7.8167404638       -7.2547812842
 C       -11.9502359499        9.3194598386       -7.4931498089
 H       -13.1541329514        8.9374984960       -4.6454509443
 H       -13.7332888566        7.3509400070       -4.3014627145
 H       -13.8708648690        8.0841036147       -5.9768524268
 H        -8.2724984391        9.9511143746       -5.1192414156
 H        -8.7784942130        8.2819981427       -4.9910770997
 H        -9.7813536152        8.8364135452       -2.8048119026
 H        -9.3578507240       10.5221219380       -3.0019081069
 H        -8.0123582388        5.2255884421       -1.2092711869
 H        -7.7760898025        6.1637228876       -2.7032921647
 H        -9.7963408892        5.1734579006       -3.5213504626
 H       -10.6549834287        6.0346867964       -2.0824912821
 H       -14.1485365580        2.9891646597        0.2179367380
 H       -13.6668177747        4.6133621700       -0.4408066725
 H       -13.4765653350        3.4006461126        2.1355035217
 H       -13.2421370928        5.0265059002        1.8289749436
 H       -11.8506107904        1.9167495533        5.4472049300
 H       -10.3588131692        2.8063368268        5.9335684367
 H       -10.1778870867        0.7030342549        7.0084126255
 H        -9.0441328996        0.6209753871        5.4000016986
 H       -10.0667216487       -2.6075975034        2.3623222636
 H        -8.9076205550       -3.6293333376        3.3494293500
 H        -7.5387830672       -3.2243405228        1.2868516556
 H        -7.1037842448       -2.1004465538        2.5567732797
 H        -4.6980774827        0.0391013852        2.1782948992
 H        -5.0666896987        1.6683749869        2.4771650488
 H        -4.4911504677        1.3143823723        0.8265901121
 H        -5.9030481772       -2.4747838130       -0.1996281907
 H        -5.0789863493       -1.5563537820        0.8962665435
 H        -5.2024154562       -0.8850851677       -0.7002680447
 H        -7.8302490394       -0.5862933581       -1.5533200192
 H        -6.4306823067        0.4519940544       -1.6229267810
 H        -7.8589176193        1.0633287816       -0.8904769371
 H       -10.2588225940       -1.9881955379        7.3497175491
 H        -8.6795765728       -2.0171069742        6.6010880194
 H        -9.6887082142       -3.4223233877        6.5367868462
 H       -12.0896814288       -3.2142701352        5.2462705938
 H       -10.8442628685       -3.9751092595        4.3303350975
 H       -11.7084652856       -2.4844500782        3.7018208897
 H        -9.6445179507        5.7315399397        3.3058959317
 H        -8.7156004549        4.2551064632        2.9334238227
 H        -9.1373289837        4.4729813007        4.5723830423
 H       -12.2400227987        3.9798033920        5.1663864736
 H       -12.8118750659        4.7232242446        3.7005891285
 H       -11.5300465691        5.4500118579        4.7184300100
 H       -13.2759729576        3.6317734151       -3.0349951842
 H       -11.7998648191        4.3828664880       -3.8790067930
 H       -12.5137277444        5.0355623844       -2.4494527218
 H       -11.9513225850        1.3130697797       -2.8792195249
 H       -10.2559219849        1.4350469007       -2.3625729212
 H       -10.9189262046        2.2167713056       -3.9210621052
 H        -5.7059155877        9.1033455018       -1.0204757476
 H        -5.9234453722        7.3760476738       -1.4300045530
 H        -6.2227768253        7.8926253033        0.1853307541
 H        -7.7007825655       10.5341609754       -0.5292918273
 H        -8.4486742528        9.4576669385        0.6306351891
 H        -9.3990586207        9.8714356352       -0.7032216778
 H        -9.3496969957        7.2869030404       -6.5417320102
 H        -9.4436524231        8.6071560057       -7.7542146220
 H       -10.5663691593        7.1706082055       -7.9298659714
 H       -12.0246816844       10.3826154766       -7.1865383274
 H       -12.9309585657        8.8911522455       -7.4208471781
 H       -11.6539905231        9.2397925508       -8.5514889656
 Na       -9.6740993224        1.7234169163        0.5715174095
