117

 C       -18.8096023920        6.3172553950       -0.3742167292
 C       -17.5678868298        6.5402670528        0.5593605817
 O       -16.6593880202        7.2647520335        0.2039064120
 C       -17.5061593152        5.8906008906        1.9497692379
 C       -16.5648222236        4.7089615098        1.7796043093
 O       -17.0698260511        3.6020669757        1.5463911247
 C       -15.0395578624        4.7713030759        1.8634910807
 C       -14.1840966382        5.6927468689        1.0004721168
 C       -12.9373570070        6.1598553892        1.6947709084
 O       -12.7793016941        6.0791788113        2.8830418107
 C       -11.8509939309        6.7737962703        0.7115603491
 C       -10.9973830074        5.7187797314        0.0137843078
 O       -10.6557756965        4.7063959960        0.6065715879
 C       -10.7141990572        5.8379429208       -1.5223626489
 C        -9.4857210450        6.7864193683       -1.7295145544
 C        -8.6214661888        6.3353376143       -2.9332346696
 O        -9.0393908572        5.4276066761       -3.6400157084
 C        -7.3225408911        7.1118453008       -3.2753067686
 C        -6.2054712361        6.8414728246       -2.1662657569
 O        -5.9725643654        7.5901612293       -1.2092312545
 C        -5.5612620795        5.4862611679       -2.2035460736
 C        -5.1364813081        4.9227872810       -0.8680650931
 C        -6.3948802584        4.7755113918        0.0200206025
 O        -7.5216337155        4.7933314466       -0.4148800934
 C        -6.2136655196        4.3737522219        1.6198990207
 C        -6.0268876638        2.8060695088        1.5514703606
 O        -6.9379226016        2.0704893508        1.1490393235
 C        -4.7301785410        2.1041666789        2.1853703822
 C        -4.6823891915        0.5791826820        1.8764722080
 C        -4.5324598185        0.4552030918        0.3545882252
 O        -4.2956980528        1.4380557105       -0.2947425801
 C        -4.7923576532       -0.9503685366       -0.3159664200
 C        -6.2623849367       -0.9757793851       -0.8257197294
 O        -6.9847435021       -1.7240033430       -0.3088552491
 C        -6.5332403281       -0.1908493687       -2.0611973880
 C        -8.0192077978       -0.3183712996       -2.5500445221
 C        -9.0294457160        0.6997500764       -1.9233091692
 O        -8.8065439797        1.8898125485       -1.9452489775
 C       -10.4480007553        0.1988634400       -1.4311807633
 C       -10.2882480381        0.1447334047        0.1663030531
 O        -9.7814936354        1.1113007520        0.7389781434
 C       -10.8613126636       -1.1458813348        0.8258295286
 C       -11.5048380506        1.4514052462       -1.5723975731
 C       -10.8645173534       -1.0495979375       -2.1119094957
 C        -3.7388774006       -1.1129895213       -1.4595774133
 C        -4.6802908387       -2.1313203553        0.6555715340
 C        -4.9652135013        5.1146518109        2.3007303267
 C        -7.5321683274        4.7205206227        2.4571938442
 C        -6.6985540151        6.6361062301       -4.5887055005
 C        -7.5451600341        8.6546582402       -3.4018113603
 C       -12.6139324982        7.6775590896       -0.3258361080
 C       -10.9232685223        7.6861450141        1.6457666120
 C       -16.8465381044        6.8896389275        2.9682229774
 C       -18.9653869114        5.3917636776        2.3922634563
 H       -18.7457582942        5.3436873236       -0.7778923728
 H       -18.7971188046        7.0817506136       -1.1595842176
 H       -19.7299855117        6.3440881930        0.1926958636
 H       -14.6999447985        3.7767795254        1.6827947940
 H       -14.6739976834        4.8910295366        2.8910878672
 H       -14.7518060801        6.6304136669        0.9471161979
 H       -14.0960432355        5.2742907484       -0.0405243807
 H       -11.6833627560        6.1448058906       -2.0020067244
 H       -10.4214868513        4.9224983621       -1.8730083172
 H        -8.7711566892        6.7254247253       -0.8706211503
 H        -9.8119952413        7.8229295764       -1.7805646392
 H        -4.7131512842        5.7468727811       -2.7940853177
 H        -6.2114578919        4.7779408793       -2.7097508548
 H        -4.3865975076        5.5680739458       -0.4297503215
 H        -4.6693590778        3.9836073419       -1.0274498649
 H        -4.7565145363        2.3964762779        3.2332935998
 H        -3.9082212398        2.5846768887        1.6892726760
 H        -5.4911226971        0.0539556329        2.3904412827
 H        -3.7623723850        0.1522004767        2.3113435145
 H        -5.8891324740       -0.6358417028       -2.8440572725
 H        -6.0976719206        0.7285799383       -1.9768239092
 H        -8.2909860641       -1.3409941931       -2.2573298045
 H        -8.0753526080       -0.1266709904       -3.6296561609
 H       -10.3360625544       -2.0273163626        0.4422133270
 H       -11.9079964586       -1.3635395414        0.4650350417
 H       -10.7388555087       -1.0293319678        1.8765686627
 H       -11.1434505910        2.3775028473       -1.3223910250
 H       -12.2709771384        1.1761444087       -0.8089571116
 H       -11.8806496274        1.4424080802       -2.6292027572
 H       -11.8216052320       -1.4655456352       -1.8409320194
 H       -10.1537016735       -1.8017086323       -1.8484851947
 H       -10.8635539765       -0.9819222923       -3.1986229914
 H        -2.8315700300       -1.5909164842       -1.0218335845
 H        -3.3761762675       -0.1428466931       -1.8183065316
 H        -4.0804912012       -1.8313562110       -2.2422641733
 H        -4.6926751941       -3.0264172107        0.0655590397
 H        -5.5063035108       -2.0933276617        1.3024179221
 H        -3.7194709728       -2.1223691856        1.2486186116
 H        -4.0532628196        4.7229184866        1.7737474998
 H        -4.9288150382        4.7904499827        3.3528409750
 H        -5.0190405219        6.1967635431        2.2640016228
 H        -7.3719439727        4.5143509211        3.5168355513
 H        -8.4780778507        4.3262744868        2.0966629269
 H        -7.5283951511        5.8330105452        2.3239864801
 H        -5.6367701914        6.9479321774       -4.5883418594
 H        -7.1126418736        6.9189299598       -5.5272244773
 H        -6.7034624201        5.5256344415       -4.6336952374
 H        -8.2035516170        8.9800085325       -4.2036418135
 H        -6.5597851741        9.1279000220       -3.5900097140
 H        -8.1122852714        8.9869303932       -2.4736992633
 H       -11.8507115562        8.1962110782       -0.9029147409
 H       -13.2190268214        8.3753687714        0.2728590227
 H       -13.2685322140        7.0177379015       -0.9546142756
 H       -10.3677768877        7.1414540388        2.4117547613
 H       -11.5519412295        8.3977733499        2.1772834101
 H       -10.1204680546        8.2273705222        0.9919422321
 H       -16.4969656266        6.4468338503        3.8416984522
 H       -17.4663980200        7.7440491293        3.1824832382
 H       -15.9984036186        7.3387940629        2.4929781255
 H       -19.2225136900        4.5309021044        1.7970773747
 H       -19.7083934448        6.1508648337        2.2171650340
 H       -19.1506659642        5.0654926071        3.4135444124
 Na       -8.9298152475        2.9428067314        0.0872810222
