117

 C       -18.8620482267        6.3126176540       -0.3464935309
 C       -17.5526836943        6.5716415212        0.4326537768
 O       -16.6798112750        7.2868628631       -0.0475685202
 C       -17.3735663381        5.9556403747        1.9616190502
 C       -16.5717473012        4.5972437571        1.8027611381
 O       -17.1074162279        3.5413319021        1.6640188870
 C       -15.0549213431        4.6481956497        2.0487656708
 C       -14.2365576144        5.5461490322        1.0175862584
 C       -12.8771879289        6.0466855747        1.5780377067
 O       -12.6026050465        5.9397897229        2.7602186937
 C       -11.8783746860        6.8712940308        0.6089045902
 C       -10.9520138173        5.6864034473       -0.0575465346
 O       -10.7538999360        4.6470574518        0.5606342266
 C       -10.5203443109        5.8799334339       -1.5481200341
 C        -9.4341414300        6.9256865129       -1.8410025138
 C        -8.6095187543        6.4191403541       -3.0485914811
 O        -8.9192319255        5.4178118151       -3.6667386535
 C        -7.2576579426        7.0699462499       -3.4510943468
 C        -6.2953003754        6.6684340762       -2.2817083167
 O        -6.0188310841        7.4355930814       -1.3918799765
 C        -5.6940076726        5.1956221260       -2.2491543917
 C        -5.1394828998        4.8283879169       -0.8377828914
 C        -6.3255407525        4.6731640968        0.1238409393
 O        -7.4498532550        5.0297745196       -0.2434033035
 C        -6.1291300805        4.4023630796        1.6660208970
 C        -6.0773801374        2.7933616365        1.6586442334
 O        -6.9215151386        2.1922943962        1.0783686959
 C        -5.0068118000        2.1031911176        2.4570628650
 C        -4.7475505977        0.7023254460        1.9442208369
 C        -4.6666444351        0.5180658821        0.3712636977
 O        -4.3881902576        1.4450534557       -0.3906050537
 C        -4.8021928702       -0.9826957726       -0.1956948339
 C        -6.2245612632       -1.0153515212       -0.8558819920
 O        -7.1473577536       -1.7443106660       -0.3693694565
 C        -6.6487184487       -0.1032422800       -2.1000190770
 C        -8.0925305240       -0.3920155600       -2.4711730038
 C        -9.0169885147        0.7473813240       -1.9737357070
 O        -8.6593983539        1.9203005801       -1.8790408490
 C       -10.4244422259        0.2696674555       -1.3014699865
 C       -10.2971679682        0.0416375852        0.3176819076
 O        -9.7338763298        0.8858776731        0.9728804351
 C       -11.0089037568       -1.2282537484        0.8878738077
 C       -11.6053095640        1.3133725545       -1.4641572045
 C       -10.9560534042       -0.9937507822       -2.0442019642
 C        -3.7481147449       -1.1803541597       -1.3003329092
 C        -4.5683531740       -2.0241593282        0.8784481434
 C        -4.8602907167        5.1010626722        2.2145422362
 C        -7.4227752466        4.8586251805        2.3427710025
 C        -6.8277117819        6.5549204022       -4.8676257070
 C        -7.4000998499        8.6155178635       -3.4266424969
 C       -12.5721012165        7.8059101078       -0.3705920963
 C       -10.8130356620        7.6505121980        1.3593430945
 C       -16.7542029874        7.0007324294        2.8376867214
 C       -18.7550401544        5.6042484495        2.5950196868
 H       -19.6258812260        5.6428089091        0.1339204012
 H       -18.5337857763        5.9839833701       -1.3141095325
 H       -19.3649132670        7.3179486678       -0.4307315899
 H       -14.5571700382        3.6934247001        2.2117754872
 H       -14.8750285958        5.0480010731        3.0226887839
 H       -14.8691750974        6.3297782427        0.6217637350
 H       -13.9632303323        4.8770552165        0.2571868915
 H       -11.4344257565        5.9260537758       -2.0802231693
 H       -10.0249510288        4.9138460676       -1.9574687874
 H        -8.7531495597        7.0256966559       -1.0548847922
 H        -9.8811957719        7.8785322365       -2.0668286763
 H        -5.0097967780        5.1001835338       -3.1537793778
 H        -6.5688431404        4.5064775896       -2.2695223530
 H        -4.4317915309        5.5637588013       -0.3837527222
 H        -4.5556793989        3.8909951233       -0.9830474192
 H        -5.4323003591        2.2211154442        3.4540655459
 H        -4.0607945248        2.7209700274        2.3662121296
 H        -5.6083745337        0.0850469383        2.3205627869
 H        -3.8492784825        0.3567810359        2.4685228249
 H        -5.9582610563       -0.3222355908       -2.9095511248
 H        -6.5309349856        1.0468702519       -1.9691374839
 H        -8.4605021892       -1.2951817954       -1.9648542502
 H        -8.1575594947       -0.4653592409       -3.5637032369
 H       -10.5483578125       -2.0941343519        0.4331803488
 H       -11.9385607208       -1.2737203278        0.4035643530
 H       -11.0187702084       -1.2777317383        2.0032120175
 H       -11.3175397990        2.3366459673       -1.0647447933
 H       -12.4215545042        0.9613696498       -0.8822997310
 H       -11.8769724921        1.3231729120       -2.4827619026
 H       -12.0266193956       -1.0912393689       -1.7410404233
 H       -10.6096900407       -2.0476626382       -1.8029501192
 H       -11.0943370821       -0.8759360630       -3.1284434467
 H        -2.7678286518       -1.4859642696       -0.9234339425
 H        -3.5646034055       -0.1926975486       -1.7310548426
 H        -4.0349466942       -1.9649022579       -2.0017209125
 H        -4.6492051860       -3.0463118786        0.5294425462
 H        -5.2884159017       -1.8693285570        1.6967358708
 H        -3.5692209455       -1.8363891886        1.2579529353
 H        -3.8671190530        4.7812762001        2.0153301442
 H        -4.9868052653        5.2261842269        3.3009880267
 H        -5.0001624371        6.0804378094        1.7687974394
 H        -7.3127975872        4.7224719586        3.4229682003
 H        -8.1946543572        4.1658337503        1.9679920040
 H        -7.6967326676        5.8567229340        2.0753990907
 H        -6.0693467465        7.1196419367       -5.4010417628
 H        -7.7069913078        6.5171191977       -5.4921182727
 H        -6.5942109722        5.5208841479       -4.8560126789
 H        -8.1928418558        8.9911947907       -4.1131572482
 H        -6.4889697206        9.0286795997       -3.8163166708
 H        -7.7018280558        8.9199593553       -2.4674483264
 H       -11.8815697687        8.4970914701       -0.8985846204
 H       -13.3219033482        8.3019587524        0.2584339788
 H       -13.1046369521        7.1976340143       -1.0784952203
 H       -10.3970321771        6.9770245914        2.1414851632
 H       -11.3114899452        8.4422406118        1.9477489143
 H       -10.0136668376        8.0104386401        0.8218430036
 H       -16.3661311832        6.6932426401        3.8587378320
 H       -17.4528535103        7.8164921629        2.9987349571
 H       -15.8393403444        7.4359331163        2.3450320467
 H       -19.2696395697        4.7733364413        2.1497185568
 H       -19.4048370574        6.4683087278        2.6575110718
 H       -18.7201416891        5.2278329469        3.6018414019
 Na       -8.9883798659        3.2632114759        0.1478880567
