117

 C       -18.8912075404        6.3035840593       -0.2977167440
 C       -17.5809281396        6.5003989993        0.4887230932
 O       -16.6830381399        7.1801983877       -0.0201215390
 C       -17.3408663210        6.0338848763        1.9341052076
 C       -16.5337788499        4.7127541217        1.9328600797
 O       -17.1007792034        3.6618687713        1.6401709018
 C       -14.9535566620        4.6870212909        2.1259344468
 C       -14.1899234899        5.4602354100        1.0329231749
 C       -12.8704404719        6.0257589708        1.5197238848
 O       -12.4768713463        5.9068773374        2.6477947754
 C       -11.9454687430        6.8132078709        0.5306432343
 C       -11.0728343286        5.7039430435       -0.1698042064
 O       -10.7929197058        4.7742272764        0.5544548641
 C       -10.4620348057        5.8267222575       -1.5487753298
 C        -9.3783898320        6.8702047601       -1.9076753877
 C        -8.5408795662        6.3583728725       -3.1156046291
 O        -8.9772284985        5.3570071572       -3.6890267547
 C        -7.2198764795        7.0423821240       -3.5580502917
 C        -6.2009191350        6.5947371579       -2.4084380376
 O        -6.0355617670        7.3439118713       -1.4350693236
 C        -5.7479599571        5.0933806809       -2.2703260957
 C        -5.2054197282        4.8324151232       -0.8968405245
 C        -6.3273659519        4.8885469539        0.1434446343
 O        -7.4571050727        5.0168044989       -0.2408652303
 C        -6.1419502759        4.4727613218        1.6415605180
 C        -6.1095567583        2.8517689907        1.6856077213
 O        -6.9913728471        2.2577802323        1.0859904484
 C        -5.0476260603        2.0912837399        2.5119685842
 C        -4.8831562314        0.6379885268        1.8764357639
 C        -4.7109867341        0.5560329279        0.4016594529
 O        -4.4922585034        1.4664023756       -0.3222028278
 C        -4.8425784753       -0.8627938816       -0.1639154385
 C        -6.3062765630       -1.0028612795       -0.7649758139
 O        -7.1111665787       -1.7533992628       -0.3408899550
 C        -6.6075015609       -0.1177247845       -1.9700450457
 C        -8.0585967236       -0.2748258420       -2.4341726743
 C        -9.0859561703        0.6107818610       -1.7012103887
 O        -8.7690038765        1.7912318948       -1.6818992123
 C       -10.5256186292        0.2854573972       -1.2448599870
 C       -10.3204878589        0.0435139209        0.2622704526
 O        -9.7221598340        0.8517255938        0.9502485570
 C       -10.9157823044       -1.1486850166        0.9065936752
 C       -11.4566501012        1.4590860947       -1.4508477223
 C       -10.9843631629       -1.0201226176       -1.9827665065
 C        -3.7917701127       -1.1448625520       -1.2567242854
 C        -4.6401990459       -2.0207535951        0.8542505179
 C        -4.8396812446        5.1421310836        2.1141114048
 C        -7.3555701297        4.8901176567        2.5037823567
 C        -6.8786977999        6.5832082429       -4.9455994711
 C        -7.2981793935        8.6144011048       -3.4375962622
 C       -12.6290072023        7.7522048665       -0.4463666322
 C       -10.8360323315        7.5383896946        1.4240482611
 C       -16.5345482870        7.1043449541        2.6570083344
 C       -18.7083962568        5.6120578347        2.5399853687
 H       -19.7863058092        6.1354882092        0.2540643854
 H       -18.6079910935        5.5021731356       -0.9787166008
 H       -19.0944241081        7.2569534637       -0.9109637592
 H       -14.5626099911        3.6600178099        2.2617379734
 H       -14.5487815402        5.1027976532        3.1048807638
 H       -14.8688850377        6.2978904670        0.7472407523
 H       -14.0007881450        4.8228623844        0.1910569790
 H       -11.3805255841        5.8123197328       -2.2596875550
 H       -10.0196042663        4.8431641418       -1.8056235579
 H        -8.6414898609        7.0904856749       -1.0651611005
 H        -9.9391597947        7.8159067358       -2.2127291690
 H        -4.8555658206        5.1177744262       -2.8725609617
 H        -6.5050788330        4.3488208209       -2.6122094332
 H        -4.3127007985        5.5881635722       -0.8108868496
 H        -4.7164594036        3.8530224933       -0.9301051100
 H        -5.4255478397        2.1558459270        3.5330186784
 H        -4.0645898780        2.6716399581        2.4045345539
 H        -5.7449665765        0.0039879041        2.1627655848
 H        -4.0075384824        0.2259305833        2.3591016087
 H        -5.8012356498       -0.4266098321       -2.7579299331
 H        -6.3858957839        0.9357391281       -1.8230261339
 H        -8.3718978922       -1.3190827328       -2.2911032277
 H        -8.1019024507        0.0298285453       -3.4767766244
 H       -10.5069413529       -2.0441585382        0.5028832221
 H       -11.9398969761       -1.1645074934        0.5210555224
 H       -10.8117700109       -1.1045302491        1.9751690349
 H       -11.1045750021        2.1937587116       -0.8140454598
 H       -12.4725844986        1.1436231557       -1.0815536003
 H       -11.5382170893        1.7723818590       -2.5202845481
 H       -12.0369035235       -1.2288584501       -1.9697210330
 H       -10.5601324711       -2.0101762228       -1.6588694712
 H       -10.8634383100       -0.8705255842       -3.0732471097
 H        -2.7930856701       -1.1348496388       -0.8912862320
 H        -3.8415682342       -0.4285040327       -2.0026414034
 H        -3.9773735214       -2.1652411699       -1.5957005239
 H        -4.6059597886       -2.9783902033        0.3541486903
 H        -5.3777816106       -2.0929003669        1.6151359134
 H        -3.5907317277       -1.7851824361        1.3225262759
 H        -3.9294430712        4.9071236886        1.4932503721
 H        -4.5789928396        4.9071184097        3.1869995857
 H        -4.9778773410        6.1515017952        1.9659246053
 H        -7.0278368727        4.8201884830        3.5179281090
 H        -8.1979995229        4.2348675864        2.3389008702
 H        -7.6516569998        5.8959489934        2.2341799957
 H        -6.0717166735        7.2202102234       -5.3938262984
 H        -7.6874955384        6.6381762904       -5.5668118395
 H        -6.6233958026        5.5176785523       -5.0275226079
 H        -8.1042494124        9.0307444925       -3.9954671089
 H        -6.4320498792        8.9789720439       -3.8836765061
 H        -7.4183339598        8.8940235684       -2.4029472368
 H       -11.8983694860        8.2436141671       -1.1038838018
 H       -13.1005840229        8.4513930595        0.2811574324
 H       -13.4072381628        7.3134305964       -1.0562243394
 H       -10.4637330072        6.8577448484        2.1422999314
 H       -11.2759212602        8.3258234163        1.9690489530
 H        -9.9582180911        7.8665881442        0.8913991986
 H       -16.3120620148        6.7426434411        3.6837662298
 H       -17.1310233064        8.0061886858        2.8455077411
 H       -15.5040114565        7.3825939536        2.2582779306
 H       -19.1901172257        4.7712932864        2.0526139011
 H       -19.4353246158        6.4442335904        2.7008251387
 H       -18.6217890839        5.1517670193        3.5230098625
 Na       -9.0246187586        3.1845365675        0.0977348715
