117

 C       -18.8448647573        6.2602959245       -0.2594973212
 C       -17.5324255203        6.5783591967        0.4656987549
 O       -16.6197771370        7.0895301463       -0.1079770570
 C       -17.3114099346        6.0659666677        1.9842252329
 C       -16.4443119163        4.7277283663        1.8213830618
 O       -17.0032010174        3.6669594950        1.6305500299
 C       -14.9642448383        4.7702708289        2.1266774472
 C       -14.1618351300        5.4239199675        1.0106644427
 C       -12.8605139098        6.0315028599        1.5356358203
 O       -12.4857518001        5.8092603661        2.6614323508
 C       -11.8822735328        6.7983688566        0.5169990567
 C       -10.9905924497        5.6942599195       -0.2304107314
 O       -10.7302618543        4.7210572068        0.4722801276
 C       -10.4844667522        5.7573025326       -1.6359448465
 C        -9.3975493488        6.7890565115       -1.9057531505
 C        -8.6058686584        6.3042741480       -3.1823885678
 O        -8.9206943592        5.3262048507       -3.7824736615
 C        -7.2401618616        6.9976854405       -3.5387094162
 C        -6.2428334319        6.5177048494       -2.4146388480
 O        -5.9802090566        7.2598702341       -1.5135096777
 C        -5.6815499635        5.0988601481       -2.3921294542
 C        -5.2661865654        4.7990845423       -0.8810647274
 C        -6.4691482889        4.8554424353        0.0467183120
 O        -7.6297355320        5.0282762755       -0.3103586306
 C        -6.1001607234        4.5074456572        1.6124312691
 C        -6.1165369175        2.9602836775        1.6495894906
 O        -7.0795526068        2.3458396471        1.1373603819
 C        -5.0391550192        2.1464127958        2.4041412847
 C        -5.0146079908        0.6322928589        1.9622983568
 C        -4.7050499310        0.5488957672        0.4775839262
 O        -4.5952187365        1.5534256466       -0.2136923246
 C        -4.8392171999       -0.8991392278       -0.1992316104
 C        -6.3349376752       -1.0387307916       -0.7454295933
 O        -7.1004729831       -1.7869508603       -0.2133350840
 C        -6.6801572911       -0.1292377216       -1.9276701885
 C        -8.1185867731       -0.2416527007       -2.4920441002
 C        -9.0903108836        0.7004272759       -1.7261716976
 O        -8.7115089505        1.8134619538       -1.4740572435
 C       -10.4690513065        0.2698121224       -1.2673983853
 C       -10.3326185684        0.0563593202        0.3285202202
 O        -9.7519814778        0.9418103378        0.9129763594
 C       -10.9112303401       -1.2078750676        1.0601091008
 C       -11.3418780442        1.4956067772       -1.4771461222
 C       -11.0298822110       -1.0412335473       -1.9573837127
 C        -3.7944657136       -1.0531917807       -1.3630060197
 C        -4.7447033340       -2.0730996858        0.9556203782
 C        -4.7430408111        5.1344950150        2.1501860727
 C        -7.2131160705        4.9541269623        2.6276930621
 C        -6.8363695092        6.5990134965       -4.9521196898
 C        -7.2710498754        8.5639148938       -3.4876759849
 C       -12.6798560919        7.7424698594       -0.5191779145
 C       -10.9074221300        7.5723818216        1.4167408977
 C       -16.5361850572        7.2173719476        2.6577229063
 C       -18.6244152861        5.7143789849        2.6536890740
 H       -19.6368562007        6.6414037191        0.3669603311
 H       -18.8744330244        5.1452956161       -0.3847675119
 H       -18.9521636834        6.7626421844       -1.1611584165
 H       -14.6103538330        3.7353988393        2.2805429528
 H       -14.6806522385        5.1971017612        3.1420456630
 H       -14.8398961091        6.2002062137        0.5889139603
 H       -13.9221881438        4.6184185702        0.2331214001
 H       -11.3663619979        5.8450179425       -2.3673338776
 H       -10.0935111666        4.7986284273       -1.9316496477
 H        -8.6066917962        6.8683676802       -1.0527032816
 H        -9.9072286183        7.8019698583       -2.0642162098
 H        -4.8600392028        4.9963688688       -3.0665095449
 H        -6.5199648867        4.4721835161       -2.6679224736
 H        -4.5190243078        5.5451996860       -0.6322563929
 H        -4.7514876618        3.8226221684       -0.8009800387
 H        -5.4008391669        2.2240900007        3.4628338875
 H        -4.0777094863        2.5932965697        2.3037915916
 H        -5.9640763293        0.1589489262        2.1707684478
 H        -4.2545127619        0.2254631747        2.6232723071
 H        -5.8650016550       -0.2685121482       -2.6693655424
 H        -6.5355853771        0.8714326346       -1.6069690671
 H        -8.4742450953       -1.2661291769       -2.3514346531
 H        -8.1104919646        0.0342760851       -3.5539820118
 H       -10.3647427577       -2.0775421979        0.6667461273
 H       -11.9857940680       -1.4177842204        0.8498587102
 H       -10.6801320824       -1.1316032457        2.0859946067
 H       -11.0716746209        2.1410379073       -0.6590307536
 H       -12.4315542946        1.2463387207       -1.4283289177
 H       -11.1331454437        1.9544271004       -2.4714337451
 H       -12.0760750425       -1.2822548792       -1.8323327580
 H       -10.5588615102       -1.9317016654       -1.6895097627
 H       -11.0022900794       -0.9343824435       -3.0373263147
 H        -2.8357944050       -0.7258028390       -1.0202216641
 H        -4.0810390649       -0.4132163347       -2.1886031317
 H        -3.6725174400       -2.0568723548       -1.6539171312
 H        -4.7406681369       -3.0807518235        0.4793192629
 H        -5.6406652452       -2.0804938936        1.6054986615
 H        -3.8698622574       -1.9431467529        1.5537346044
 H        -3.9264307709        4.9965195095        1.3926868532
 H        -4.4167272037        4.5593047139        2.9916895871
 H        -4.7411922609        6.2400611010        2.3521405196
 H        -6.8038575970        4.8635934547        3.6185853596
 H        -8.1203667157        4.4165466238        2.5226937712
 H        -7.3906593840        6.0023113890        2.3715205622
 H        -5.9479047394        7.1366547568       -5.1981838210
 H        -7.6089274446        6.8855082637       -5.7304190302
 H        -6.6928232393        5.5278016349       -5.1406151635
 H        -8.0808507233        8.8299047559       -4.0931590792
 H        -6.3921261975        8.9480537704       -3.9959202712
 H        -7.3847743136        8.9751337019       -2.4692965466
 H       -12.0156867131        8.0312832455       -1.3591228019
 H       -13.0191077868        8.5956664610        0.0530457116
 H       -13.5801756120        7.2570816211       -0.9927686974
 H       -10.3861441036        6.9968732875        2.1172715689
 H       -11.4490912860        8.3281878649        1.9138995704
 H       -10.1136469716        8.0302490709        0.7788211082
 H       -16.2879313294        7.0203247010        3.6912417855
 H       -17.1735104891        8.1308561050        2.7579828895
 H       -15.5889870676        7.4170453831        2.2056558310
 H       -19.1880668600        4.8375545451        2.3161636794
 H       -19.2740585494        6.5946700911        2.6955864131
 H       -18.5090601419        5.4399350694        3.7241064041
 Na       -9.0734159942        3.0967277785        0.1220536774
