117

 C       -18.8455401830        6.1703086796       -0.1385655136
 C       -17.4758245029        6.4637545936        0.4771244230
 O       -16.5281704141        6.9071291852       -0.2068801161
 C       -17.2141675601        6.1591139708        1.9910554775
 C       -16.3701268204        4.8382075165        1.8765035879
 O       -16.9799299494        3.8465721920        1.5249681423
 C       -14.9017241389        4.8310580357        2.1590941004
 C       -14.0762858660        5.4293076978        0.9638871269
 C       -12.7804830881        5.9350326774        1.4781331301
 O       -12.4108474247        5.8272600377        2.6143904636
 C       -11.7823994025        6.7326140058        0.3993636673
 C       -10.9522437840        5.6436852841       -0.2472394637
 O       -10.6610012163        4.6761626994        0.4148044379
 C       -10.6080253282        5.7254936946       -1.7463348014
 C        -9.4390122561        6.6597923329       -2.0407773934
 C        -8.6190064293        6.1956365156       -3.2974056186
 O        -8.9422096034        5.2347944192       -4.0058319259
 C        -7.2421285939        6.9623943177       -3.5737789329
 C        -6.2101798913        6.5743956790       -2.4236401794
 O        -5.8787824978        7.3986169720       -1.5711899202
 C        -5.8349125443        5.0796073241       -2.3536708836
 C        -5.3204907754        4.6585974076       -1.0137855289
 C        -6.4450212051        4.8060689718        0.0910877403
 O        -7.6311159961        4.8776174125       -0.1779968883
 C        -6.0153681489        4.5269915547        1.5850710925
 C        -6.2004891707        2.9936800855        1.7231833339
 O        -7.1705133323        2.3664009486        1.3808939542
 C        -5.0413302806        2.2117946638        2.3404541812
 C        -5.2460029657        0.7006607106        2.0069566711
 C        -4.9679949416        0.5272084466        0.5577203612
 O        -4.6782469571        1.4496234816       -0.1571598150
 C        -4.9851583429       -0.8917077025       -0.0625184644
 C        -6.4059554194       -1.0173640846       -0.7185795266
 O        -7.2965218759       -1.6771641243       -0.2455546582
 C        -6.6298600208       -0.2719668443       -2.0779169212
 C        -8.1206123173       -0.4486282865       -2.4018474838
 C        -8.9816415300        0.6173745801       -1.7059148832
 O        -8.5384024244        1.7676301460       -1.5657105113
 C       -10.4322495014        0.3107111328       -1.1783888306
 C       -10.4207923244        0.2015197088        0.4580611835
 O       -10.0148205297        1.1381734972        1.1388981758
 C       -10.6966778239       -1.1617167798        0.9858823767
 C       -11.5174573791        1.4414957123       -1.4856130721
 C       -10.9875209182       -0.9058686409       -1.8323798659
 C        -3.8313482770       -0.8835040523       -1.1188245422
 C        -4.6152167542       -2.0670717628        0.9112051485
 C        -4.6369464534        5.0836067693        1.8647898023
 C        -7.1647957838        5.2265072227        2.5558945321
 C        -6.6426007787        6.4739797308       -4.8908883123
 C        -7.4903771694        8.4706658573       -3.5257819540
 C       -12.6351739088        7.4954230214       -0.5677936339
 C       -10.9032620559        7.7932307630        1.2338093364
 C       -16.4331871276        7.3461956776        2.6579204951
 C       -18.5473945530        5.9176748002        2.7394260232
 H       -19.3424894926        7.0540459742       -0.5094798273
 H       -19.3933772564        5.5130308863        0.4591937846
 H       -18.5588904616        5.6270904926       -1.1093582410
 H       -14.5440922509        3.8241419693        2.3612113922
 H       -14.6955096888        5.4189188758        3.0141082086
 H       -14.6786056924        6.2647324333        0.5688032286
 H       -13.8929617793        4.7227265749        0.1955154620
 H       -11.3934636268        6.1271304622       -2.3101158025
 H       -10.5861136537        4.7318665999       -2.2018474958
 H        -8.7596294754        6.7112372583       -1.2761114974
 H        -9.8656961342        7.5919292627       -2.1983915706
 H        -4.9887509335        4.8535132646       -3.0614503061
 H        -6.7555303567        4.4936528457       -2.6454790594
 H        -4.3532363485        5.1692832664       -0.8682623228
 H        -5.0485951623        3.6390432627       -1.1164268702
 H        -4.8730119842        2.3544691331        3.3746874370
 H        -4.1651465263        2.5846698625        1.7278745771
 H        -6.3051236026        0.4274034966        2.2168351673
 H        -4.5783975515        0.1836961994        2.7060383229
 H        -6.0097887682       -0.7490121720       -2.8389988516
 H        -6.2979260443        0.7795968177       -1.9668218760
 H        -8.3705786712       -1.4909654674       -2.1286951004
 H        -8.2418890235       -0.3069753542       -3.4877208797
 H       -10.0863186979       -1.9478169660        0.5106835487
 H       -11.7557013661       -1.3491893440        0.7800739402
 H       -10.5239997780       -1.2173658342        2.1008560599
 H       -11.4022520699        2.2276063124       -0.7594063781
 H       -12.5213674567        1.0618227741       -1.5683781598
 H       -11.3127186984        1.8041277655       -2.4861182371
 H       -11.8564305577       -1.3576258639       -1.4397545346
 H       -10.2347924179       -1.7320909019       -1.7247601984
 H       -11.2355527968       -0.8891675343       -2.8688247470
 H        -2.8584917467       -0.8575940035       -0.5720742180
 H        -3.9494246974       -0.0135164477       -1.7698570205
 H        -3.8256353131       -1.8340197320       -1.7613763375
 H        -4.6952811156       -2.9352740441        0.3317242524
 H        -5.2248649978       -2.1811653257        1.7579238057
 H        -3.5352137246       -1.9200740982        1.2415095102
 H        -3.8940483298        4.5154953045        1.3137532569
 H        -4.3029226890        5.1033020587        2.9437060032
 H        -4.5574888011        6.0342669506        1.4641259327
 H        -7.1472316732        4.7115770286        3.5256648140
 H        -8.1207504041        5.0075304997        2.0260627162
 H        -7.0154174160        6.2987331996        2.6473104782
 H        -5.5145980848        6.5801735533       -4.9247642475
 H        -6.9900813247        7.0239352813       -5.6912457754
 H        -6.8765359428        5.4292277265       -5.1152215437
 H        -8.1913411346        8.8497437094       -4.3596561765
 H        -6.4848999488        8.9304851734       -3.6404039645
 H        -7.7656839528        8.7396574876       -2.4893246113
 H       -11.9133595145        8.1290075225       -1.1276711199
 H       -13.3546123190        8.1689196025       -0.0428373480
 H       -13.1086013945        6.9216873138       -1.3321308307
 H       -10.1913574358        7.1746153997        1.8572907031
 H       -11.5097208350        8.4755198318        1.9025040061
 H       -10.2592129558        8.3962783416        0.6001380039
 H       -16.1336620180        7.1368533958        3.6598530438
 H       -17.1383553879        8.0675623060        2.8475154559
 H       -15.5569755417        7.7653422866        2.1799781893
 H       -19.0047320752        4.9881142592        2.4546155781
 H       -19.3211193904        6.6645363714        2.5905777732
 H       -18.4399717933        5.8463913426        3.7983774697
 Na       -9.1541328644        3.0902454897        0.4198774750
