117

 C       -18.7845242374        6.1142646250       -0.2064364947
 C       -17.4022130830        6.4871976787        0.4232166307
 O       -16.5015184781        6.8651820521       -0.2699631113
 C       -17.1751300760        6.2256977013        1.9748332626
 C       -16.4003293382        4.8663897605        1.9127961687
 O       -16.9930219709        3.8988000897        1.5470709725
 C       -14.8766630516        4.8099406906        2.2500276978
 C       -14.0712348448        5.4424380225        1.0917416839
 C       -12.6446520911        6.0815800721        1.4256589677
 O       -12.1411275260        6.0133158792        2.5428176790
 C       -11.8730400804        6.7713275085        0.2677081103
 C       -11.0577085664        5.6073171070       -0.3635973861
 O       -10.6296444098        4.7972241431        0.4731140015
 C       -10.5341599726        5.5016308953       -1.8049732168
 C        -9.4543413697        6.5516560390       -2.1472892737
 C        -8.6661861306        6.1684272421       -3.4068498548
 O        -8.9629430463        5.2265610093       -4.0834556153
 C        -7.3492999066        6.9645433619       -3.6196159710
 C        -6.3624219167        6.5657809806       -2.4196799244
 O        -5.8529117653        7.3553954908       -1.6726527278
 C        -5.9374899604        5.0312137838       -2.4489203286
 C        -5.3610880130        4.6308193175       -1.0091953203
 C        -6.4050373420        4.6734947715        0.0507869062
 O        -7.5732580327        4.7526840232       -0.2903623308
 C        -6.0098395957        4.5344306566        1.5465879411
 C        -6.1798097059        3.0301892616        2.0208679342
 O        -7.2896472529        2.5317965855        1.8785837213
 C        -5.0679517227        2.1155314638        2.6210568468
 C        -5.1679911208        0.6415503450        2.1437520189
 C        -4.9910373274        0.4656255275        0.5706813452
 O        -4.9327758924        1.5089198340       -0.1153998649
 C        -4.9312387479       -0.9598319295       -0.1381067157
 C        -6.3854441387       -1.0746187303       -0.7126177929
 O        -7.2259313893       -1.5841028524        0.0567128786
 C        -6.7505863175       -0.5690670640       -2.1568264676
 C        -8.2236621151       -0.3527721411       -2.4750501696
 C        -8.9764399583        0.6675728247       -1.6016956617
 O        -8.5324334319        1.7840281212       -1.4382478614
 C       -10.3910945126        0.2854530672       -1.1205796065
 C       -10.3926892769        0.1454310611        0.4147527757
 O       -10.4260610909        1.1463438887        1.0847703217
 C       -10.4659713429       -1.2225257974        1.1860114466
 C       -11.3158240315        1.5471759286       -1.5003046658
 C       -11.0178995481       -0.9563840661       -1.7310480713
 C        -3.8513817225       -0.9912425576       -1.2068964826
 C        -4.8168227779       -1.9894127952        0.8943802197
 C        -4.5858606750        5.1062580376        1.8124781634
 C        -6.9731213481        5.4127463311        2.3464466511
 C        -6.5655787186        6.4837832711       -4.8963371493
 C        -7.5984075602        8.4441303429       -3.6760294927
 C       -12.7371987121        7.5969543620       -0.7009635276
 C       -10.8599262313        7.6693503179        0.9361427653
 C       -16.3925219673        7.3974172108        2.5347360455
 C       -18.4105223547        6.0486075901        2.8884847901
 H       -18.8023331472        6.7291114893       -1.1363140918
 H       -19.5873800154        6.3885718154        0.5345860818
 H       -18.9159573888        5.1191636586       -0.5224011505
 H       -14.5009039869        3.7630946778        2.3425204291
 H       -14.6934774030        5.4637660507        3.1557678609
 H       -14.7312319831        6.1464638872        0.5968946235
 H       -13.9774922060        4.6490368819        0.2992406430
 H       -11.3765061519        5.5157373096       -2.5677988593
 H       -10.1697402475        4.4666125516       -1.9507943894
 H        -8.8165733576        6.6719420968       -1.1819791025
 H        -9.8938555109        7.5741794947       -2.4274425389
 H        -5.3200540049        4.7770327324       -3.3059922008
 H        -6.8614638892        4.4377344292       -2.4951422098
 H        -4.5205504379        5.2413472275       -0.6629790069
 H        -4.9245601207        3.5557149874       -0.9562137045
 H        -5.4082120767        2.1416337316        3.7212471176
 H        -4.0936468248        2.5449008754        2.5361316105
 H        -6.1107336937        0.2624006640        2.5349278421
 H        -4.3032867058        0.1601795019        2.6314845945
 H        -6.3896591082       -1.3840199632       -2.8347636797
 H        -6.1208588056        0.3374205223       -2.3311502231
 H        -8.6993905583       -1.3278333040       -2.4918515888
 H        -8.2288598193        0.0058865149       -3.5161371585
 H        -9.5657119647       -1.7863858728        0.9462351782
 H       -11.3600675764       -1.8309753883        1.0447127526
 H       -10.3867813874       -1.0733661931        2.2417650042
 H       -10.7980236255        2.5532528013       -1.2921895043
 H       -12.1867196608        1.3769644178       -0.9128987034
 H       -11.6844025426        1.4912233285       -2.4967336357
 H       -12.1484453735       -0.9353912095       -1.6812423512
 H       -10.7585368792       -1.9332880776       -1.3798133539
 H       -10.8924743274       -1.0691319724       -2.8366640042
 H        -2.9250618448       -1.2850176123       -0.7574862705
 H        -3.7766720993       -0.0437051287       -1.7683817815
 H        -4.1021325416       -1.7393834481       -1.8997723627
 H        -4.8389906044       -3.0224333300        0.4472604526
 H        -5.7411895862       -1.8441075924        1.5406216206
 H        -3.9886561811       -1.8257406799        1.4757526979
 H        -3.7441742967        4.5390954632        1.4310181591
 H        -4.4058922079        5.2338134475        2.8489700519
 H        -4.4255405285        6.1984055537        1.4571082535
 H        -6.9194559611        5.0482195027        3.3695245090
 H        -7.9682186644        5.3530137687        1.9434703831
 H        -6.5853409708        6.4331903585        2.3267460733
 H        -5.5692359988        6.7612306272       -4.8177261860
 H        -6.9485510718        6.9866586341       -5.8630311504
 H        -6.5376934751        5.4163586667       -5.0132893818
 H        -8.2641315546        8.5894059412       -4.4627897325
 H        -6.6945915049        9.0094859963       -3.7950029661
 H        -7.9394428203        8.7715149451       -2.7270987119
 H       -12.3181046417        8.4263073548       -1.2680882616
 H       -13.6337964834        7.9690994496       -0.2291004442
 H       -13.0922176307        6.8282804974       -1.4333635618
 H       -10.2325553902        7.2045173655        1.6579009115
 H       -11.3714086328        8.4935049754        1.3640828688
 H       -10.2309015315        8.1279822567        0.1697820869
 H       -15.8189899025        7.2597378377        3.4838100186
 H       -17.0130662353        8.3497795710        2.7022602484
 H       -15.6562124037        7.6731959171        1.7734697562
 H       -19.0743381027        5.2126506886        2.6500116770
 H       -19.1069714717        6.8554704314        2.7204305738
 H       -18.1882819090        6.0577505051        3.9678154873
 Na       -9.0632562132        3.0716347806        0.4190997561
