117

 C       -18.7726310343        6.1282225403       -0.1487147148
 C       -17.3956215374        6.5134349197        0.4095103033
 O       -16.4726656057        6.9427698874       -0.3141657364
 C       -17.0859462585        6.2414166529        1.8596416747
 C       -16.3484465853        4.8147338447        1.9497695601
 O       -16.9485864359        3.8014651597        1.6257489982
 C       -14.8790007368        4.8800392473        2.2797891490
 C       -14.0376164111        5.4568878080        1.0979298092
 C       -12.6959566081        6.0812271851        1.4294410719
 O       -12.2249028095        6.0763746763        2.5237006053
 C       -11.8775261543        6.7367270944        0.1863451964
 C       -10.9474951061        5.5458128228       -0.3285719681
 O       -10.5993611038        4.7351998579        0.5020398138
 C       -10.5940420447        5.4341413776       -1.8130241632
 C        -9.5535931259        6.5204639458       -2.1646555400
 C        -8.6947327079        6.1559215170       -3.4161515065
 O        -8.9575844482        5.1979277581       -4.1536551528
 C        -7.2735375679        6.9628173442       -3.6693905289
 C        -6.3128741495        6.4840142061       -2.5476969888
 O        -5.9343305019        7.2775885648       -1.6924812892
 C        -5.8988251826        5.0452802210       -2.4980482409
 C        -5.3206670527        4.6836353273       -1.1352447840
 C        -6.3218925879        4.6210312736       -0.0076997070
 O        -7.5167903034        4.6240582055       -0.2123358259
 C        -5.9571438062        4.5360135137        1.6210662730
 C        -6.2850816498        2.9658654212        2.0843043160
 O        -7.3960710269        2.5772009868        2.1149668019
 C        -5.1291016586        2.0744391457        2.6395918212
 C        -5.0673783078        0.6633378877        2.1073318971
 C        -4.9856178329        0.5944639584        0.5853936963
 O        -5.0544430018        1.6053939606       -0.1036416330
 C        -5.0266241732       -0.8884654197       -0.0221710996
 C        -6.4753151160       -0.9994441621       -0.6199719942
 O        -7.3468293712       -1.4977001443        0.0829037394
 C        -6.7318294604       -0.5813181415       -2.1191834670
 C        -8.1658125258       -0.4135361873       -2.5174926159
 C        -8.9569689253        0.5899021724       -1.6266563083
 O        -8.3847570378        1.6365962210       -1.3222674934
 C       -10.5271008313        0.2657025880       -1.1013278768
 C       -10.4341123609        0.1714936242        0.5187454915
 O       -10.4899808508        1.2118642512        1.1585657699
 C       -10.3155091220       -1.1611494373        1.2497795100
 C       -11.2974827325        1.4825673301       -1.5163887505
 C       -11.0795535637       -0.9415690352       -1.8077814734
 C        -3.9430201780       -1.0679278744       -1.2226409464
 C        -4.7844636269       -2.0465479712        0.9557941597
 C        -4.5030525667        5.0226515018        1.7815376303
 C        -6.9822975466        5.4618257352        2.4064402353
 C        -6.6845960971        6.5164479103       -5.0238208340
 C        -7.5483778780        8.4974689848       -3.6840523587
 C       -12.7668052848        7.5314659709       -0.7843433649
 C       -10.7781992479        7.8138143873        0.7127548655
 C       -16.3760017662        7.4947092877        2.4805159020
 C       -18.3394993579        6.1219874712        2.8717750020
 H       -18.7778776782        6.1532879325       -1.2416148612
 H       -19.4506641869        6.7940158139        0.2866414341
 H       -19.0566567051        5.1083371310        0.1546616713
 H       -14.4037889987        3.8861009872        2.4736470554
 H       -14.8067599244        5.6169923170        3.0950791810
 H       -14.6571062749        6.1840683337        0.5131231149
 H       -13.9410216493        4.6194731922        0.3029984162
 H       -11.5063652127        5.5287598752       -2.3472792904
 H       -10.2550050266        4.3695606130       -2.0841545560
 H        -8.9229183817        6.6111495063       -1.2153416990
 H        -9.9766815990        7.5753164894       -2.4317659652
 H        -5.1890553180        4.9067740215       -3.3280932201
 H        -6.6828171755        4.3629354428       -2.6545443711
 H        -4.5972922937        5.3667598213       -0.8009983662
 H        -4.7803067145        3.7130231275       -1.1410682811
 H        -5.2868247444        2.1917287642        3.7101601186
 H        -4.2055257138        2.5708045110        2.4097098824
 H        -5.9939604156        0.1657331469        2.3607972755
 H        -4.2122450021        0.1408569613        2.5430891187
 H        -6.3047550550       -1.3195747458       -2.6778734256
 H        -6.1963829361        0.3681410357       -2.2954685275
 H        -8.6911516846       -1.3649759548       -2.6483339676
 H        -8.0885255413        0.0002452043       -3.5370046345
 H        -9.3091045628       -1.4687433365        0.9657405240
 H       -11.0312788257       -1.8672212705        0.9590495862
 H       -10.3436629196       -1.2178839355        2.3635152038
 H       -10.6021838343        2.3797527288       -1.5243090379
 H       -12.1376680611        1.5845539047       -0.8261819299
 H       -11.7654570852        1.3690165088       -2.5012922507
 H       -12.1561586955       -0.9904401256       -1.6567131933
 H       -10.7442381707       -1.9486884929       -1.5766435315
 H       -10.9846857696       -0.9286975392       -2.8663175864
 H        -3.0386321314       -1.2350046608       -0.7040909888
 H        -3.8402619722       -0.2427372997       -1.8868511080
 H        -4.1652048034       -1.9308618572       -1.8004356943
 H        -4.7054186908       -2.8946454691        0.2848594879
 H        -5.6347723599       -2.2165601020        1.6402785891
 H        -3.8321818688       -1.9347343166        1.5112509907
 H        -3.7086534262        4.6164842685        1.1566180438
 H        -4.2009939049        4.8009598179        2.8392788495
 H        -4.3680426160        6.1032086190        1.8260880225
 H        -6.8102160258        5.5209584862        3.4760549899
 H        -7.9466921939        5.0225310977        2.1558763658
 H        -6.9109527526        6.4184362094        1.9693165011
 H        -5.6654479736        6.9201715295       -5.1813055915
 H        -7.2716002706        6.7816064436       -5.8893257733
 H        -6.5007078005        5.4410260288       -4.9731158487
 H        -8.3186843422        8.5400128960       -4.4450908978
 H        -6.7341723642        9.1401760870       -3.8559630973
 H        -7.8846010647        8.7803645246       -2.7583497512
 H       -12.2628357565        8.2036764425       -1.5176447923
 H       -13.4090473445        8.2458024023       -0.2052371616
 H       -13.4695602058        6.8959403134       -1.3349210771
 H       -10.1913148629        7.4054953359        1.5373098910
 H       -11.2665193780        8.7118686893        1.0722601108
 H       -10.1656629348        8.1563872005       -0.0260538968
 H       -15.9407374533        7.2962464219        3.5061860759
 H       -17.0312277662        8.3637864091        2.5693252472
 H       -15.5136608572        7.8577784957        1.8671872750
 H       -19.1154155376        5.3540202870        2.6960738291
 H       -19.0068502543        6.9923197219        2.8840614251
 H       -17.9594107832        6.0214781807        3.9038277829
 Na       -9.0779938714        3.1025050969        0.4227566367
