117

 C       -18.7448285769        6.1388200476       -0.1428938890
 C       -17.4091420356        6.5300739265        0.4206528076
 O       -16.5555322783        6.9881191136       -0.3272100041
 C       -17.0304978609        6.2868019707        1.9251743893
 C       -16.2812313336        4.9481780581        1.9922906074
 O       -16.8208548035        3.8721806337        1.7786466881
 C       -14.7544893038        4.9542040170        2.2671711730
 C       -13.9887947127        5.4777419306        1.0069629150
 C       -12.7256092324        6.1793820064        1.4119215750
 O       -12.3128014820        6.1678024251        2.5538658330
 C       -11.8806794550        6.7385733042        0.2060215583
 C       -11.0114621990        5.5521803615       -0.3434201904
 O       -10.6111359283        4.7341811881        0.4496020516
 C       -10.5820088949        5.4596872172       -1.8361448622
 C        -9.5029392839        6.5154137232       -2.2613139703
 C        -8.6392869566        6.0905209215       -3.4611513242
 O        -8.9792008921        5.1914381773       -4.1883708021
 C        -7.3809181514        6.8639392293       -3.7416851668
 C        -6.2947487891        6.4777274896       -2.5648522365
 O        -6.0373219979        7.2843265790       -1.6914315985
 C        -5.8678700926        5.0036566711       -2.4203004252
 C        -5.2292739838        4.7048496092       -1.0762598946
 C        -6.3167377900        4.5477229725        0.0384020584
 O        -7.4833864289        4.5202175308       -0.2953130082
 C        -5.9712131327        4.4268719890        1.5829581072
 C        -6.2828292796        3.0521553583        2.1028709088
 O        -7.4409043209        2.6646200892        2.2123344544
 C        -5.1052703166        2.1710800158        2.6470836694
 C        -5.0726756689        0.7338533803        2.0832320448
 C        -5.0575777874        0.6135318987        0.5858943340
 O        -5.0956074299        1.5682897362       -0.1062717490
 C        -5.0971560907       -0.8809843855        0.0194707693
 C        -6.5709193558       -1.0228771984       -0.6085251027
 O        -7.5087693955       -1.3430747651        0.0220865735
 C        -6.6985530876       -0.5243809136       -2.0306422425
 C        -8.1927852608       -0.5125766100       -2.4505211260
 C        -8.9516419544        0.4217165502       -1.5248149482
 O        -8.3702520091        1.4214077888       -1.1449039153
 C       -10.4741901925        0.3004181564       -1.1270604009
 C       -10.3856389005        0.2651608026        0.4885432138
 O       -10.4774037260        1.2715853743        1.1689903679
 C       -10.2123821677       -1.0450173857        1.1513598101
 C       -11.2950857901        1.5404395506       -1.4963633754
 C       -11.0504510907       -0.9874341412       -1.7699029311
 C        -4.0469531733       -0.9891040705       -1.1887975122
 C        -4.7448343991       -2.0032366473        1.0311378980
 C        -4.5027599024        4.8265396430        1.8279473875
 C        -6.8711172129        5.3787712617        2.3361792846
 C        -6.8881797168        6.5384301563       -5.1749505032
 C        -7.5219631626        8.4669525087       -3.6455010731
 C       -12.7432090827        7.2909440522       -0.8723183133
 C       -10.8024474464        7.8549437506        0.6415579519
 C       -16.2193227576        7.4893549775        2.4019857131
 C       -18.3813073144        6.1035603170        2.7454937194
 H       -18.6847400860        5.6682625884       -1.0735848305
 H       -19.3893256549        6.9919412141       -0.1411591473
 H       -19.1506794697        5.3881760635        0.5580411761
 H       -14.4234493214        3.9405702511        2.3658522219
 H       -14.5061950331        5.6084495685        3.0727971886
 H       -14.6489066763        6.1778230476        0.3883251105
 H       -13.8358047434        4.6841603433        0.2667188969
 H       -11.4599792485        5.5473930226       -2.4617110832
 H       -10.2475973771        4.4192928745       -1.9616360038
 H        -8.9082972542        6.6410622691       -1.3885724273
 H        -9.9062088087        7.4934113739       -2.5239908084
 H        -5.0405352221        4.9414223854       -3.1347436287
 H        -6.5541462703        4.1983099273       -2.7130675984
 H        -4.5166255525        5.5025396534       -0.8457489247
 H        -4.6645135139        3.8495152961       -1.0920422311
 H        -5.1260413671        2.3232721982        3.6791711440
 H        -4.1584595904        2.6500474037        2.3089176650
 H        -5.9879518684        0.1959525096        2.3945859093
 H        -4.1967417836        0.2004024040        2.4502495818
 H        -6.0837825399       -1.1667298316       -2.6398366777
 H        -6.3139859853        0.4507941301       -2.0042003280
 H        -8.6492638623       -1.5216088835       -2.4073051584
 H        -8.3147324871       -0.2171784952       -3.5009346255
 H        -9.1670151996       -1.3446527008        1.1132775315
 H       -10.9129460422       -1.7850441977        0.7403843494
 H       -10.4992936513       -1.0857386091        2.2013766942
 H       -10.7362426760        2.4077027328       -1.5493692498
 H       -12.1879923108        1.5751408172       -0.8049029680
 H       -11.7291028160        1.3446548195       -2.5260753918
 H       -11.9671957906       -1.1713254780       -1.3119697056
 H       -10.5452529649       -1.9403842353       -1.6838994322
 H       -11.2230393651       -0.9788939338       -2.8169867926
 H        -3.0943306399       -0.9100518579       -0.6924910134
 H        -4.1150781594       -0.2270375781       -1.9033485355
 H        -4.1410781270       -1.9639442633       -1.7040692445
 H        -4.6826722574       -2.8904594636        0.4494193565
 H        -5.4716426909       -2.1033404955        1.7759960605
 H        -3.6964925068       -1.8194118453        1.4909356354
 H        -3.7234390416        4.4235735288        1.1506518740
 H        -4.1636190082        4.6080904263        2.8846169161
 H        -4.3640240295        5.8460536515        1.8603000817
 H        -6.4051798530        5.7182489252        3.2422779133
 H        -7.7872009079        4.8299512425        2.5225181591
 H        -7.0545296432        6.2263646476        1.6935674421
 H        -5.9755638776        7.1444196766       -5.4802208922
 H        -7.6373585120        6.7296634445       -5.8612607625
 H        -6.5388190056        5.4922756383       -5.2377577602
 H        -8.2481096058        8.8449069595       -4.3617205900
 H        -6.5351104069        8.8635080491       -3.7996292366
 H        -7.7031089842        8.7596765550       -2.5889912893
 H       -12.1411661037        7.5499161477       -1.7555066988
 H       -13.0951289002        8.3251878158       -0.5948184126
 H       -13.6265027995        6.7392460056       -1.1605127015
 H       -10.2732832780        7.4577444241        1.4888624574
 H       -11.3164945417        8.7413176003        1.0022984719
 H       -10.1326829272        8.2439024315       -0.1430265013
 H       -15.8655448213        7.4120691761        3.4182552374
 H       -16.7115927081        8.4145227469        2.2571427160
 H       -15.2996310447        7.5855561713        1.7914047133
 H       -18.9468624347        5.2823438697        2.3238941587
 H       -19.1799886777        6.8658838468        2.7626234208
 H       -18.1912131204        5.8269841507        3.7727034320
 Na       -9.1069308147        3.0387528880        0.4791087447
