117

 C       -13.3317584835        7.4964195431       -5.3231466467
 C       -11.8472094158        7.4576184308       -5.7310270217
 O       -11.0881694777        6.7486778659       -5.0642921809
 C       -11.1145558658        8.6107348355       -6.6154222241
 C       -10.5081176866        9.5225305532       -5.5201891842
 O       -11.2596475555       10.2073330935       -4.8883938243
 C        -9.0579716628        9.4948168241       -5.0509130514
 C        -9.1450395566        9.2721655291       -3.5498382026
 C        -7.7271424721        9.0424585630       -2.8981914187
 O        -6.6992164875        9.1681298219       -3.5099552821
 C        -7.7630540299        8.5192176403       -1.3342566330
 C        -8.6832443560        7.2099138945       -1.2349524136
 O        -9.6786751506        7.1879900112       -0.5086020033
 C        -8.4345745504        5.9734999735       -2.1434004436
 C        -9.8277872942        5.2923486185       -2.5641966647
 C       -10.2158504886        4.0511348534       -1.6664312287
 O        -9.3458900400        3.4650096173       -1.0733917655
 C       -11.5337128087        3.2750617376       -1.9191674793
 C       -12.2059676250        2.8181116367       -0.5565256641
 O       -11.7287426202        1.8354322436       -0.0694956981
 C       -13.0801517735        3.7853619200        0.1656931915
 C       -12.8024649098        3.7254193935        1.6337426577
 C       -11.4350193198        4.0522817452        2.0422626613
 O       -10.6226787212        4.3466938105        1.1391860690
 C       -10.9481325632        3.9997044445        3.4370054130
 C       -10.7872858810        2.4884559027        3.7916741633
 O       -10.5807547074        1.6684671242        2.8754359299
 C       -10.6935204409        2.2607960989        5.3313175094
 C       -10.0043383592        0.9259095690        5.7219250846
 C       -10.8139383653       -0.3794519384        5.6786201914
 O       -11.9849064575       -0.4563156708        5.9828706885
 C       -10.1318041445       -1.7441674241        5.2338661319
 C        -9.0983996230       -1.5995655273        4.0941691223
 O        -8.2003800939       -0.7900217674        4.2442013218
 C        -9.0658824446       -2.6091754775        2.7462841460
 C        -7.8727659766       -2.3155240141        1.8370001685
 C        -8.0706380100       -1.1762750424        0.9516333160
 O        -9.2262751861       -0.7553422366        0.7576022974
 C        -6.8588961407       -0.4351136253        0.3412098829
 C        -6.6239042301        0.8688957016        1.1825940307
 O        -7.5370388025        1.6173312371        1.5152613854
 C        -5.1508408450        1.3531955926        1.5159342348
 C        -5.6349599130       -1.3240270787        0.3157347002
 C        -7.0737584620        0.0339328577       -1.1247297334
 C        -9.2597675477       -2.3013046574        6.4615048685
 C       -11.3345692059       -2.7722977554        4.8863561788
 C        -9.4224200870        4.5592706006        3.4868220354
 C       -11.8639979942        4.7671309459        4.5117907069
 C       -12.6069719982        3.9716918810       -2.8039922247
 C       -11.0833354509        1.9085418810       -2.6922340845
 C        -6.3530897310        8.1109901975       -0.9728178467
 C        -8.1736060525        9.6291764660       -0.3366373939
 C       -10.0083743563        7.7733332078       -7.5319509342
 C       -12.1433260246        9.4677417482       -7.3848189101
 H       -13.6431708256        8.3906003869       -4.8051191324
 H       -13.4785430403        6.6413673138       -4.6316093725
 H       -14.0172196777        7.3662465296       -6.0510661730
 H        -8.3991296061       10.3698108324       -5.3074388080
 H        -8.4160063143        8.7050891730       -5.3102804887
 H        -9.7065680425        8.2258587731       -3.4287500702
 H        -9.7152649485        9.9799438063       -3.0108256338
 H        -7.7389626985        5.2823537723       -1.5913430856
 H        -8.0297082608        6.2387842672       -3.1082252512
 H        -9.7534471296        4.9828621117       -3.5598516574
 H       -10.6019905835        6.0138021357       -2.4740884527
 H       -14.0630536212        3.4726845650       -0.1149511469
 H       -12.9631845597        4.8436856100       -0.1245716791
 H       -13.0288115572        2.7166012926        2.0367519777
 H       -13.5442863958        4.2486165483        2.2217954762
 H       -11.6477516195        2.4270636611        5.7668424261
 H       -10.1125164016        3.0432881017        5.8236400845
 H        -9.7610007871        1.0862855217        6.7389327975
 H        -9.1904505710        0.8545906484        5.0226209697
 H        -9.9981469967       -2.5678666700        2.2145332961
 H        -8.8722166476       -3.5899085396        3.1877257554
 H        -7.7607175711       -3.2552312090        1.2305489955
 H        -7.0015190961       -2.2164614576        2.5529756041
 H        -4.5396770832        0.6032396986        1.9141579701
 H        -5.1138993084        2.1473979409        2.3238394710
 H        -4.8130730917        1.7459199734        0.5717364070
 H        -5.8931634035       -2.0823941178       -0.3636888359
 H        -5.5166118471       -1.9784565628        1.2749458582
 H        -4.6367969273       -0.9231562655        0.0337776315
 H        -7.1844951547       -0.9307874272       -1.7016394668
 H        -6.1391139881        0.4282912897       -1.4732104702
 H        -7.8541539355        0.7966500616       -1.2400001283
 H        -9.7796130752       -2.2180539273        7.3843686743
 H        -8.4754928544       -1.5610963893        6.6605641630
 H        -8.7102041624       -3.2155468312        6.2950320340
 H       -12.2179027298       -2.5910887814        5.4088234786
 H       -11.0728252027       -3.7579530138        5.1360117249
 H       -11.6253107227       -2.7281479531        3.8853516096
 H        -9.3515038106        5.5417934474        3.0480709585
 H        -8.6729847007        3.9516435436        3.0066578720
 H        -9.1372057044        4.6327847459        4.5353294815
 H       -12.3750188225        4.0236361042        5.1171875650
 H       -12.5828284968        5.4383760605        4.1207994343
 H       -11.2707699379        5.3312399614        5.2241050087
 H       -13.3478762500        3.2473363555       -3.1194804702
 H       -12.1388949455        4.4162543254       -3.6778742700
 H       -13.1653906202        4.8058622634       -2.2795854578
 H       -11.6894463221        1.7207465653       -3.5671593768
 H       -10.9495866599        1.1215010684       -1.9507108909
 H       -10.0622793349        2.1863075222       -3.0797249692
 H        -5.7139936251        8.9662513506       -0.7988810592
 H        -5.9343304568        7.4132283136       -1.7026218444
 H        -6.4515483150        7.4957381045       -0.0724155327
 H        -7.3239039360       10.3157058281       -0.1376575228
 H        -8.5151149914        9.1482559988        0.5911357211
 H        -9.0930242291       10.1097212031       -0.5514612922
 H        -9.6596943902        7.0327738339       -6.8082778888
 H        -9.2510579123        8.4667412371       -7.8921428733
 H       -10.6133703405        7.2598925612       -8.2604001948
 H       -12.1319894300       10.4774823676       -6.9287190320
 H       -13.1677594932        9.0267606593       -7.4475942162
 H       -11.8184853690        9.6492082870       -8.4049709164
 Na       -9.5671212207        1.4062718707        0.6058474822
