117

 C       -17.9084336051        5.2650759121       -0.0517193621
 C       -16.9981920783        6.4289994144        0.3554439892
 O       -16.2524329001        6.9834437710       -0.4009081280
 C       -16.7035446439        6.7675761241        1.9036020370
 C       -15.7751554314        5.5871022805        2.2550266876
 O       -16.1748979835        4.4333544083        2.0989026452
 C       -14.3568827381        5.8145618644        2.7879321910
 C       -13.2948846596        5.5905258481        1.6134469599
 C       -12.6528870085        6.9581287627        1.1548132620
 O       -12.6712253960        7.9730527624        1.7727632801
 C       -12.0323299318        6.9109346917       -0.3123580469
 C       -11.1973141608        5.6870858660       -0.7500358411
 O       -10.7499784166        4.9482823185        0.1304808110
 C       -10.8942655912        5.4177845299       -2.2286461985
 C        -9.5586571289        6.1539122303       -2.6060606224
 C        -8.6250027579        5.4449259789       -3.5760270728
 O        -8.8529718518        4.2834604673       -3.9650780569
 C        -7.2106882237        6.0761028837       -3.9193075674
 C        -6.2374708396        5.7677648404       -2.7096337359
 O        -6.1422999758        6.4969840690       -1.7349185244
 C        -5.5121883689        4.4277132507       -2.7845321855
 C        -4.9374527144        4.2630466582       -1.3140786034
 C        -6.2112144296        4.3364634250       -0.3243631413
 O        -7.3412884491        4.0981392378       -0.7596111499
 C        -5.9237614427        4.5922806215        1.2501054142
 C        -6.2705445235        3.1673694034        1.9016413371
 O        -7.3726879724        2.6762473367        1.8698982617
 C        -5.1852936030        2.3822115938        2.7447059103
 C        -5.1977590834        0.9398169575        2.3364931373
 C        -4.7508949186        0.7258897631        0.8415396343
 O        -4.1089583350        1.6103725057        0.2464730210
 C        -4.9487637982       -0.6948336754        0.2248611206
 C        -6.4650695715       -1.0615188651        0.1673477287
 O        -6.9887374698       -1.6016229405        1.1559687363
 C        -7.1564053399       -0.7167158336       -1.1444560909
 C        -8.6852547152       -1.0519274835       -1.2088391865
 C        -9.4424348659        0.2215940095       -1.0996865329
 O        -8.9660895124        1.3200385331       -1.3167260762
 C       -11.0161781330        0.2471894593       -0.6744832329
 C       -11.1323330782        0.7136242521        0.8557803211
 O       -10.5810505288        1.7476971200        1.2187158782
 C       -11.9425709984       -0.0972234696        1.9180179679
 C       -11.7884705319        1.1737016848       -1.7126010795
 C       -11.5123479052       -1.2691558507       -0.8234008625
 C        -4.3534851794       -0.7425606420       -1.1843979880
 C        -4.1909745240       -1.6929131747        1.0440316079
 C        -4.5511955413        5.1357491939        1.6403609687
 C        -7.0567160239        5.4991058795        1.8398368078
 C        -6.6429874058        5.4454832479       -5.1854323691
 C        -7.2446342592        7.5547464356       -4.1244331463
 C       -13.3779737147        6.9030462526       -1.2451146874
 C       -11.3108506325        8.2544629345       -0.6246039610
 C       -15.9929930857        8.0979583118        2.0261605951
 C       -18.0461416393        6.5201479910        2.6547558345
 H       -18.6272181222        5.7381913757       -0.6823167753
 H       -18.2927971327        4.8207635508        0.8839252997
 H       -17.3678138921        4.5768533573       -0.5715641722
 H       -14.2481238572        5.1608585031        3.6572073941
 H       -14.2430585000        6.8101998508        3.2172154348
 H       -13.8225977177        5.1867118263        0.7033218030
 H       -12.4727326841        4.8816696591        1.8712623392
 H       -11.7075068017        5.6810839294       -2.8724058312
 H       -10.8599576013        4.3195395718       -2.4400545224
 H        -8.9672377823        6.1960089536       -1.7474255442
 H        -9.7667736964        7.1078541917       -2.9913252458
 H        -4.6462981761        4.4042816176       -3.4573667756
 H        -6.1597838542        3.5781862728       -3.0576071772
 H        -4.2926980389        5.1926186664       -1.1264180742
 H        -4.3794603364        3.3613770366       -1.1636924881
 H        -5.5566462523        2.3118497878        3.7466331944
 H        -4.1858688555        2.8571022982        2.6529304592
 H        -6.1148034855        0.3779215465        2.5828915535
 H        -4.3803385054        0.4639998659        2.8769959857
 H        -6.6190457982       -1.2569427062       -2.0339381134
 H        -6.9908150653        0.3457167837       -1.3658510835
 H        -9.0128646782       -1.7801544654       -0.4393968116
 H        -8.9820556808       -1.4564539799       -2.1629805508
 H       -11.1811513641       -0.7263161349        2.3925173946
 H       -12.6232202833       -0.9187107983        1.5638366764
 H       -12.3357233913        0.5530945892        2.6594006718
 H       -11.2787526207        2.1325011717       -1.9171532233
 H       -12.8321848376        1.3349916948       -1.3541243085
 H       -11.9123703917        0.6744979517       -2.7059746614
 H       -12.5444562296       -1.3137195027       -0.5837538898
 H       -11.0143432396       -1.9168530646       -0.1445110118
 H       -11.1746625471       -1.5903691682       -1.7807796643
 H        -3.2908297595       -0.7854278519       -1.1558173535
 H        -4.6533720905        0.0654973773       -1.8024072524
 H        -4.7247666345       -1.6321517577       -1.6714851519
 H        -4.5097668452       -2.7515329075        0.8273872468
 H        -4.3675721984       -1.3718565313        2.0782187290
 H        -3.1821576944       -1.5828646002        0.8656468353
 H        -3.6919582487        4.4851390586        1.5288849529
 H        -4.6065279707        5.6806549100        2.5682478969
 H        -4.3036865969        5.9592392589        0.8705778951
 H        -6.6574244083        5.8516501878        2.7699115183
 H        -7.9559896708        4.9357797048        2.0238114266
 H        -7.2533639423        6.3603475089        1.1695595200
 H        -5.6779229346        5.8124555786       -5.4675684623
 H        -7.4237413790        5.7939215649       -5.9414281971
 H        -6.5786039618        4.3769640139       -5.1319446537
 H        -7.8845005404        7.8543450591       -4.8870431677
 H        -6.2649923910        7.8425292722       -4.4198257460
 H        -7.3891757466        8.1128379677       -3.2047849635
 H       -13.1892181903        6.9103393903       -2.3242360005
 H       -13.9844307257        7.8119824353       -1.1800957684
 H       -14.0743955393        6.0867805341       -1.0508099992
 H       -10.4865081132        8.3356635154        0.0051718177
 H       -11.9877283506        9.0272091891       -0.4405082586
 H       -11.0856367772        8.3197347637       -1.6956370505
 H       -15.6181366868        8.0620330454        3.0495952641
 H       -16.6922893802        8.9522179228        1.8054008039
 H       -15.1935943759        8.0859339679        1.2653748246
 H       -18.3201977480        5.4768699159        2.5643641126
 H       -18.8567647204        7.1415833906        2.2168648707
 H       -17.9850627071        6.7240908602        3.7303572023
 Na       -9.0645646791        3.2099498985        0.1930336122
