117

 C       -17.7669277069        5.1861032477       -0.0372000226
 C       -16.8038910285        6.4010535599        0.2795457286
 O       -16.4512792209        7.1927472254       -0.5752887730
 C       -16.5326522040        6.6924799220        1.7894774205
 C       -15.4891692446        5.6967032394        2.3570919320
 O       -15.7947928704        4.4963195392        2.3501345773
 C       -14.1262799754        6.0730465178        2.7937391184
 C       -13.0213574461        5.6413747824        1.6530003954
 C       -12.5277146513        6.9200235784        0.9642305183
 O       -12.2010993551        7.8970494506        1.6216592482
 C       -12.1729668062        6.8580788413       -0.5430251555
 C       -11.1665136951        5.6851128966       -0.8013309887
 O       -10.8125364015        4.9178896949        0.0991917529
 C       -10.6845271936        5.4627825662       -2.2522307188
 C        -9.2699538701        6.0443655041       -2.3987993299
 C        -8.5820667299        5.2563484396       -3.5508783933
 O        -8.9499533073        4.1735308419       -3.9870987309
 C        -7.1881013080        5.9202201681       -4.1095244648
 C        -6.0914881696        5.7567482374       -2.9962020503
 O        -6.0321989081        6.5930600296       -2.1087065516
 C        -5.3456489720        4.4491413117       -2.7763664909
 C        -4.9819323863        4.2499191137       -1.3330993898
 C        -6.2657489602        4.3198853030       -0.4376156110
 O        -7.3424136568        4.0972663045       -0.8920170282
 C        -6.1694242140        4.4688583185        1.1963174017
 C        -6.4955741896        3.0977575152        1.7751973909
 O        -7.4889908413        2.5226596545        1.5034505287
 C        -5.3883348023        2.3057269123        2.7102357831
 C        -5.2452000390        0.8626727603        2.4483046493
 C        -4.6829548559        0.6028379545        1.0209322410
 O        -4.2024033164        1.5752952714        0.4430569195
 C        -4.8387452409       -0.7687711055        0.1827313002
 C        -6.3915893187       -1.0271970913        0.2448394744
 O        -6.8934270633       -1.1404554522        1.3329581886
 C        -7.3024089997       -0.9758373278       -1.0202432628
 C        -8.8709018988       -1.0627945567       -0.5614186570
 C        -9.5587995587        0.3042903700       -0.6644697442
 O        -8.8425984176        1.2898985120       -0.7072695257
 C       -11.1718130438        0.3589645363       -0.4792818074
 C       -11.4374466803        0.9841590007        1.0235100988
 O       -11.0957126790        2.1376282187        1.2553070188
 C       -12.0781381016        0.1474979572        2.1545753475
 C       -11.6795802061        1.2540354799       -1.6027186097
 C       -11.7291479486       -1.0622829837       -0.5705394808
 C        -4.1125397213       -0.6075299208       -1.1624500609
 C        -4.1038009072       -1.8674982629        1.0823956340
 C        -4.7348121294        5.0051054499        1.6520069363
 C        -7.2589233506        5.5182670831        1.7042497754
 C        -6.6481572401        5.0649801464       -5.3288604735
 C        -7.4932907322        7.4613668383       -4.5826014542
 C       -13.4362038132        6.6382479871       -1.4119617599
 C       -11.4852425656        8.2643461207       -0.9529004998
 C       -15.8134351775        8.1445409309        1.8414323411
 C       -17.8322427942        6.4242348310        2.6006786562
 H       -18.6584286716        5.4021980904        0.5891164313
 H       -17.2507748527        4.2636478313        0.2407582788
 H       -18.0368256218        5.1974097672       -1.0625612933
 H       -13.9487880952        5.5586127902        3.7430912596
 H       -14.1959702663        7.1653002529        2.9174523257
 H       -13.4361283500        4.9394249098        0.8142494571
 H       -12.1411470671        5.0819144604        2.1017521969
 H       -11.3929201141        5.9217437007       -2.9917571615
 H       -10.6921849158        4.3480971813       -2.4869206503
 H        -8.7003199211        5.7875164329       -1.4986633667
 H        -9.1819242282        7.1375085023       -2.4894058102
 H        -4.4679504186        4.5552997560       -3.3643251920
 H        -5.8799870739        3.5553022046       -3.0636698733
 H        -4.3047153150        5.0414849907       -1.0303008980
 H        -4.5377564837        3.3062992573       -1.1671893343
 H        -5.8723947071        2.3551754488        3.6563875224
 H        -4.4366438084        2.8070335555        2.7685304843
 H        -6.1592119857        0.2545310155        2.5342634352
 H        -4.5378027478        0.4535224469        3.1367983215
 H        -6.9783925906       -1.7112328807       -1.8312748722
 H        -7.1797733224       -0.0530282973       -1.5005526689
 H        -8.8329551179       -1.2552752332        0.5370690404
 H        -9.3842963889       -1.8592996751       -1.0661913228
 H       -11.9226679810       -0.9005588677        1.9467883678
 H       -13.1827453169        0.2412183931        2.2154632410
 H       -11.6981156696        0.3961837224        3.1373977581
 H       -11.1140034439        2.2373836018       -1.7976586795
 H       -12.7237789102        1.4268109157       -1.5997405097
 H       -11.3549741953        0.7627684955       -2.4965493874
 H       -12.7903599437       -1.1528161031       -0.2215787312
 H       -11.1564495495       -1.5471739257        0.1864903171
 H       -11.4706217696       -1.4038422149       -1.5914097907
 H        -3.0951949358       -0.1811685016       -1.0488280473
 H        -4.6959580793        0.0699980734       -1.8531094375
 H        -4.0895072130       -1.5850360974       -1.6673952719
 H        -3.6220770142       -2.6619034800        0.4234028211
 H        -4.7986961798       -2.2503294589        1.8784504215
 H        -3.2670311462       -1.4309689438        1.5143364563
 H        -3.8852431879        4.2876338024        1.5998969803
 H        -4.7861438781        5.3029361490        2.6679160488
 H        -4.4814709334        5.8810366174        0.9070574451
 H        -7.3861246531        5.4797544803        2.7893030522
 H        -8.1746074497        5.0971993746        1.3073727556
 H        -7.0378355561        6.5812031816        1.3937831043
 H        -5.6666497011        5.3599705130       -5.5727373265
 H        -7.3290089629        5.2561931561       -6.2458067192
 H        -6.6812690449        4.0158679750       -5.0873594040
 H        -8.2954383017        7.6717075655       -5.2377842838
 H        -6.6107427663        7.7465217302       -5.1450670088
 H        -7.5384457229        8.1109844444       -3.7118311604
 H       -13.2348791072        7.0028633473       -2.4050587649
 H       -14.2898681872        7.2060341758       -1.1202101313
 H       -13.8137909699        5.6129300871       -1.4197720024
 H       -10.4957276968        8.4357943372       -0.5441480010
 H       -12.0949605982        9.0490555118       -0.5650810015
 H       -11.5576201620        8.2732251370       -2.0290276030
 H       -15.7468609493        8.4233012282        2.8788530877
 H       -16.5019690377        8.8318045551        1.2652388381
 H       -14.8873191367        8.0252816392        1.3035318574
 H       -17.9942968095        5.3860569448        2.4472181792
 H       -18.6673091143        6.9448356295        2.1685473938
 H       -17.7229766315        6.5378164368        3.6561406586
 Na       -9.3145817310        3.2835519437        0.1572243739
