117

 C       -17.5508840656        5.0296702896       -0.0785271937
 C       -16.7867392723        6.3577929114        0.2423744992
 O       -16.5330068128        7.1469337607       -0.6257188894
 C       -16.4886208302        6.7160636382        1.8739835094
 C       -15.4742771409        5.5719356394        2.3507399822
 O       -15.7266571086        4.4055643760        2.2580031252
 C       -13.9398879048        6.0056570063        2.7488445059
 C       -13.1224397087        5.8137858391        1.5521173986
 C       -12.3995689160        7.1202910469        0.9511294728
 O       -12.0629751416        8.0884590174        1.5565928876
 C       -12.0732910833        6.9787442733       -0.6226884580
 C       -11.0973482856        5.7760359632       -0.8621529914
 O       -10.6406235087        5.1154376292        0.0632452784
 C       -10.5874324591        5.4983966400       -2.2701404380
 C        -9.1275367442        5.8870095099       -2.4650684500
 C        -8.4496871784        5.0771350244       -3.6438722291
 O        -8.9955271755        4.0917414543       -4.1472382389
 C        -7.1339065880        5.7947687280       -4.1964575680
 C        -6.1674896106        5.8960781489       -3.0351084514
 O        -5.9940768534        6.9058555514       -2.3771603992
 C        -5.4021544858        4.6002438638       -2.7463515993
 C        -5.0274168483        4.4568802649       -1.2638967779
 C        -6.2750765425        4.2219661136       -0.3929272330
 O        -7.3564215315        3.9603510128       -0.9411723980
 C        -6.1753485579        4.3742795391        1.1053855122
 C        -6.4457992793        3.0235611368        1.7990193493
 O        -7.5586424994        2.5137658460        1.5388305902
 C        -5.5735482699        2.4103285159        2.8051942183
 C        -5.3340903926        0.9380592508        2.3929487183
 C        -4.7614039822        0.7440629091        0.9680982894
 O        -4.2603863271        1.6752011446        0.3874413793
 C        -4.9845143486       -0.6780621076        0.3055813981
 C        -6.4851861348       -1.0549551435        0.4240916834
 O        -7.0328531022       -1.3884661828        1.5096241612
 C        -7.2621591961       -1.0966015632       -0.8502396249
 C        -8.7444622270       -1.1770960674       -0.5468748244
 C        -9.4184492356        0.2167955216       -0.4501903252
 O        -8.7866030373        1.2062803555       -0.7137096374
 C       -11.0207689030        0.3295090230       -0.1661926238
 C       -11.4486373420        1.0796423782        1.1036173082
 O       -11.1894744427        2.2434033822        1.3070433638
 C       -12.2603672197        0.2759007899        2.1665734977
 C       -11.4477020052        1.2730191649       -1.3695062652
 C       -11.7600626128       -1.0414478538       -0.4138753753
 C        -4.4791401961       -0.6535958537       -1.1229001512
 C        -4.2996751427       -1.7542656132        1.0974758800
 C        -4.7738620033        5.0296412499        1.4716752402
 C        -7.2383625400        5.3093047881        1.6242300413
 C        -6.6921018315        4.8745791460       -5.4037042875
 C        -7.3672696938        7.1946699012       -4.6960508978
 C       -13.3763688960        6.4055036578       -1.3432830612
 C       -11.6225525289        8.2818793718       -1.2531623925
 C       -15.9401240780        8.2435611033        1.8792929691
 C       -17.7057828051        6.7331358894        2.7994389783
 H       -18.3411856604        5.0222550914        0.6144381748
 H       -16.8866049500        4.1689935125        0.1025310102
 H       -17.8649451460        5.1022485250       -1.1104351282
 H       -13.6592753741        5.2925411380        3.5075384270
 H       -13.8971432777        7.0285626641        3.0452316748
 H       -13.6521638580        5.2868294351        0.8508312531
 H       -12.2686961708        5.1919370590        1.7509927149
 H       -11.2371434217        5.8956981361       -2.9991607101
 H       -10.5148000884        4.4340646456       -2.3954009857
 H        -8.6313220126        5.7553300902       -1.5258383992
 H        -8.8905452958        6.9147856157       -2.6893255714
 H        -4.5630276555        4.5401021698       -3.5215297072
 H        -6.0778895435        3.7372546177       -2.8719079292
 H        -4.4809048550        5.3508784157       -0.8549736709
 H        -4.3730267819        3.5196951382       -1.1455965284
 H        -6.0841236341        2.4880441764        3.8263100937
 H        -4.6717269416        3.0645952070        2.8248539165
 H        -6.2203425555        0.3286421379        2.3712307763
 H        -4.6387223646        0.4006458579        3.0952812356
 H        -6.9815815482       -1.9380058176       -1.4585149850
 H        -7.1171749996       -0.1900470652       -1.5553830670
 H        -8.8577906004       -1.6720374052        0.4112283007
 H        -9.1531049782       -1.8024239641       -1.3688118382
 H       -12.4498484786       -0.7852416256        1.9361206811
 H       -13.2241416820        0.7823740401        2.3318249006
 H       -11.8206402989        0.3159664008        3.1683737438
 H       -10.9662132313        2.1823527967       -1.2884990212
 H       -12.5495222977        1.5339049740       -1.3029387004
 H       -11.1007643302        0.9368612177       -2.3757283739
 H       -12.8010396251       -0.8733928548       -0.4253274972
 H       -11.4783314562       -1.7571268886        0.3630849883
 H       -11.5251391435       -1.2611708485       -1.4191786923
 H        -3.4096872869       -0.5483433674       -1.0770109929
 H        -4.8240181587        0.1904681901       -1.6261511946
 H        -4.6895395985       -1.5509722850       -1.6962769209
 H        -4.4659645572       -2.6860109842        0.6138152896
 H        -4.7409423843       -1.8042763356        2.0687929753
 H        -3.1868515505       -1.6163754794        1.1114122407
 H        -3.9022563687        4.5364607280        1.0640665667
 H        -4.5959437907        5.0177025757        2.5835466999
 H        -4.8577925767        6.0245275418        1.1816480502
 H        -7.3785816773        5.1977396445        2.6977741872
 H        -8.1990925106        5.1185134244        1.1519487217
 H        -6.8793148599        6.2984657626        1.4867047027
 H        -5.6116552028        5.0845393544       -5.6291026069
 H        -7.2257910810        5.1154386662       -6.2661695806
 H        -6.8765438431        3.8191326380       -5.1743592472
 H        -8.2742330150        7.2330620167       -5.2805196497
 H        -6.5895914772        7.5612798889       -5.3140190495
 H        -7.5669020274        7.8597315690       -3.8667925617
 H       -13.3459990707        6.6249912778       -2.4296195843
 H       -14.3185826664        6.8436796980       -0.9229207533
 H       -13.5169082845        5.3382880603       -1.2283073590
 H       -11.0574284903        8.7808826085       -0.5121497314
 H       -12.4914069509        8.9019971797       -1.3652998067
 H       -10.9954850547        8.0587853935       -2.1478604662
 H       -15.6620824685        8.4190214607        2.9340247410
 H       -16.7953666288        8.8231688389        1.6886466714
 H       -15.1063237979        8.3295927367        1.1551605789
 H       -17.9907208072        5.7063741455        3.0781982840
 H       -18.5163654160        7.2771942525        2.3093789372
 H       -17.3808881095        7.2187230752        3.7264752240
 Na       -9.3668909809        3.1977848945        0.2051949960
