117

 C       -17.4428454863        4.9640487943        0.1731786560
 C       -16.8062777125        6.3815303526        0.3933111345
 O       -16.4467392481        7.1137914603       -0.5211338310
 C       -16.4452812764        6.8220020553        1.8496469737
 C       -15.3997159749        5.7272398301        2.2920369632
 O       -15.7328875908        4.5374138689        2.2879164635
 C       -13.9675087522        6.1448135364        2.6737033163
 C       -12.8346454258        5.7677311365        1.6251865722
 C       -12.4214268524        6.9916677425        0.8370609000
 O       -12.1467337658        8.0592347114        1.3701456983
 C       -12.1908057394        6.8751323292       -0.7520107658
 C       -11.0735701718        5.8515945343       -0.8978644686
 O       -10.4599980595        5.4975341909        0.1017924593
 C       -10.5360068118        5.4782312331       -2.2830699079
 C        -9.0675928067        5.9394229286       -2.5684254175
 C        -8.4578529531        5.1770104492       -3.8393962986
 O        -8.9142042935        4.1511353474       -4.1811266644
 C        -7.1517568253        5.7417746941       -4.4958749371
 C        -6.1431311177        5.7369636806       -3.2685008247
 O        -6.0125318138        6.7805335506       -2.6746447473
 C        -5.3268916288        4.5666329703       -2.7591005705
 C        -5.0425495344        4.6302672486       -1.2154449843
 C        -6.2609178392        4.2852999522       -0.3656058936
 O        -7.2768303699        3.8353794596       -0.8674701870
 C        -6.1857363597        4.4528128327        1.2285860948
 C        -6.5183878145        3.0701328969        1.9170162824
 O        -7.5665416318        2.4900140814        1.7873880272
 C        -5.4183570392        2.4160215373        2.8153056833
 C        -5.2396681282        0.9207040383        2.5559745395
 C        -4.9098989427        0.6842131083        1.0665824494
 O        -4.5563865460        1.6368286230        0.4107554742
 C        -5.0623909970       -0.7311482893        0.4265333758
 C        -6.6308697827       -1.1958598812        0.4925639627
 O        -7.0539504948       -1.4620597974        1.5443667025
 C        -7.4406307933       -1.3500055741       -0.7881910565
 C        -9.0043213453       -1.3373802897       -0.6435233079
 C        -9.5231212930        0.0748392519       -0.3832194836
 O        -8.7837569119        1.0367863674       -0.5198757652
 C       -11.0946642144        0.3330466092       -0.1840046990
 C       -11.3977737372        1.0271124940        1.1500329783
 O       -10.9031766353        2.1487537297        1.3417373768
 C       -12.2905287322        0.4863819864        2.1489117192
 C       -11.6403828957        1.2875450450       -1.2929807054
 C       -11.8136722602       -1.0996027424       -0.3489249971
 C        -4.6071116454       -0.6090741937       -1.0369050630
 C        -4.1420223543       -1.6319606670        1.2424974477
 C        -4.8805853372        4.9507281137        1.6920082931
 C        -7.2884916554        5.5349879219        1.5840805459
 C        -6.5552982017        4.8336232472       -5.5796534399
 C        -7.4730089454        7.1145479851       -5.0669588347
 C       -13.4176946304        6.4886918441       -1.5369418035
 C       -11.7065077607        8.2947777162       -1.3403507385
 C       -15.8404742400        8.2481050490        1.8024455198
 C       -17.7514580950        6.6148235003        2.7847297603
 H       -18.3758837260        4.8736334107        0.8019898747
 H       -16.7512172808        4.2097744824        0.4822662824
 H       -17.6375615658        4.9489854844       -0.9314364440
 H       -13.8098951407        5.5686759034        3.6147982504
 H       -13.9148483167        7.2445218207        2.8305071879
 H       -13.1373253011        4.8931988732        0.9256432257
 H       -11.8957681797        5.4413347558        2.1113765135
 H       -11.1816070975        5.9503113573       -3.1148567601
 H       -10.5491898728        4.3741913096       -2.3407229284
 H        -8.2973359545        5.7362464182       -1.7479403933
 H        -8.9309593843        7.0568500021       -2.6369596613
 H        -4.3684506334        4.7053190673       -3.1680576128
 H        -5.7244557442        3.6132161654       -3.1262095151
 H        -4.5464906232        5.5602438536       -1.0358221094
 H        -4.3311882792        3.8727559593       -0.9724983167
 H        -5.7281477317        2.4355334410        3.8403811098
 H        -4.5062488767        2.9638028263        2.8083519860
 H        -6.0670712441        0.2483294522        2.8690104608
 H        -4.3995793040        0.6293001843        3.1411119127
 H        -7.2035928123       -2.3093237795       -1.2677770642
 H        -7.1961480068       -0.6630929495       -1.5219747308
 H        -9.1911629939       -2.0520460841        0.1854574984
 H        -9.4102798609       -1.6874715195       -1.5847633785
 H       -12.4562619860       -0.5741022969        2.0646432629
 H       -13.1538753223        1.1040872271        2.2804849993
 H       -11.8005690144        0.5993265943        3.1342332826
 H       -11.2753414210        2.3604165229       -1.1682188726
 H       -12.6780855277        1.3720103717       -1.2827335653
 H       -11.3194920274        0.9871107423       -2.2591842523
 H       -12.9167345139       -0.8882824595       -0.2712335939
 H       -11.4054389865       -1.7259039480        0.4184334897
 H       -11.8025802542       -1.4460497201       -1.3979716460
 H        -3.5414944503       -0.3606919569       -1.0628065374
 H        -5.1191686435        0.2306941933       -1.5915001728
 H        -4.6506294153       -1.5392911786       -1.5668156325
 H        -4.3583741339       -2.7149827555        1.2260754998
 H        -4.2022242003       -1.3880965251        2.3117248664
 H        -3.1390223927       -1.3885501624        0.8898337211
 H        -4.1505204322        4.1701026903        1.4851235937
 H        -4.8762122976        5.2064946913        2.7209683262
 H        -4.6759208849        5.9324711800        1.2017823978
 H        -7.1609634948        5.9495052303        2.5763610772
 H        -8.2924695741        5.1509808064        1.4664007029
 H        -7.1101953923        6.3865528491        0.8928540941
 H        -5.6712477951        5.2323327486       -6.0057950520
 H        -7.3070606193        4.7177893631       -6.3903887412
 H        -6.4493448361        3.8306174449       -5.1759503150
 H        -8.3526268593        7.1127055302       -5.7719730168
 H        -6.5780618392        7.6005998911       -5.5760799526
 H        -7.8418030477        7.7779865402       -4.2658882996
 H       -13.2609300223        6.4660312016       -2.6199090852
 H       -14.2047364562        7.1733518547       -1.2588310855
 H       -13.8196573088        5.4699289783       -1.2827523003
 H       -11.1819841999        8.8542035812       -0.4819752146
 H       -12.6459885626        8.8698784789       -1.5128169067
 H       -11.0092609311        8.1466528627       -2.1372241167
 H       -15.5858749878        8.5552319310        2.7733538076
 H       -16.5909269631        8.9169664047        1.3739789081
 H       -14.9864638293        8.1145769318        1.2170162176
 H       -18.0972686724        5.5801978316        2.7494443215
 H       -18.5328629875        7.3416605162        2.5386047395
 H       -17.4004508526        6.7827970997        3.8077164396
 Na       -9.2384941174        3.2977755036        0.2113584801
