117

 C       -17.6453066662        5.1057466333        0.1015723865
 C       -16.7940794675        6.3419757458        0.3262132257
 O       -16.3710698571        7.0264490469       -0.5866299091
 C       -16.3232801394        6.8033712576        1.7722233001
 C       -15.2093946673        5.7981399339        2.3730650504
 O       -15.4618005716        4.6222227131        2.5468488260
 C       -13.7881010396        6.2167565915        2.8100822323
 C       -12.8744799506        5.8234867604        1.5788904597
 C       -12.4495133555        7.0325504688        0.6966410975
 O       -12.4423828328        8.1125601656        1.2520755879
 C       -12.0974356735        6.8579672512       -0.7988614271
 C       -10.8836317858        5.8378753094       -1.0637329197
 O       -10.2310119704        5.4791195940       -0.0849558189
 C       -10.4838839904        5.4394499890       -2.4480318607
 C        -9.0680245920        5.9262348849       -2.8164514371
 C        -8.4745140039        5.1072302735       -3.9512081256
 O        -8.9562984095        4.0244249279       -4.3316722726
 C        -7.0603853177        5.5967543676       -4.5164857421
 C        -6.1273450715        5.8431555114       -3.3026906529
 O        -5.9778346335        6.9181439472       -2.7658889884
 C        -5.5055743642        4.6235916620       -2.7202532696
 C        -5.0630340511        4.7420647597       -1.2666714784
 C        -6.1777030277        4.2784064839       -0.3022695026
 O        -7.1559405008        3.8261544570       -0.8193124940
 C        -6.0635015108        4.5212433634        1.2525992167
 C        -6.4400394644        3.2538690790        2.0537398578
 O        -7.5725023327        2.8102489357        1.9715316295
 C        -5.4811442296        2.3999174870        2.9266970252
 C        -5.4433583963        0.9283301465        2.5317502819
 C        -5.1743902065        0.7313578796        1.0716804492
 O        -5.0285417920        1.7047160982        0.3351946928
 C        -5.1905106577       -0.7521857974        0.4564339977
 C        -6.6555440831       -1.1904781740        0.5450531379
 O        -7.1261034638       -1.4281787543        1.6929569114
 C        -7.5082352170       -1.5245718054       -0.6917797934
 C        -9.0718782122       -1.3699715517       -0.4326865777
 C        -9.5959789880        0.0362353288       -0.4122067295
 O        -8.8944517768        1.0189421193       -0.3342150088
 C       -11.1737984725        0.2443497402       -0.2686788509
 C       -11.2652554972        0.9542407663        1.1393621057
 O       -10.6729715969        1.9588197988        1.4666687832
 C       -12.2202871191        0.5180848592        2.2635154998
 C       -11.6472947328        1.0922705268       -1.4193853945
 C       -12.0579384118       -1.0252483245       -0.1925384548
 C        -4.6224469692       -0.6771426069       -0.9877880459
 C        -4.2743142948       -1.7851092786        1.2435789758
 C        -4.7728550739        5.2116371708        1.6218067106
 C        -7.2636582388        5.4747197371        1.5626577412
 C        -6.6810644238        4.5900857359       -5.6171463090
 C        -7.2685073769        7.0085121238       -5.1875189452
 C       -13.3342288762        6.3431549333       -1.5089891726
 C       -11.7220882034        8.3069868072       -1.3089087810
 C       -15.9707514255        8.2956003084        1.8691154255
 C       -17.5399149438        6.6153475516        2.7544704681
 H       -18.5899834420        5.2690229975        0.5549785980
 H       -17.1595888256        4.3250037663        0.7594320137
 H       -17.6858885511        4.9212023974       -0.9179308017
 H       -13.5502605301        5.6186374070        3.6832400556
 H       -13.6701707406        7.2891719466        3.0066543553
 H       -13.3607306061        5.1259728852        0.9457171475
 H       -11.9375543225        5.3001333385        1.8993286593
 H       -11.0893437765        5.9033238857       -3.1557112027
 H       -10.5682875195        4.3248415853       -2.5035511839
 H        -8.2957334836        5.9365615348       -2.1277043708
 H        -9.1186857474        6.9382826120       -3.0982829025
 H        -4.5517329941        4.3668862606       -3.2811931722
 H        -6.1974049549        3.8296437758       -2.9378525731
 H        -4.6915406243        5.7913968459       -1.1146829636
 H        -4.1146175479        4.1571956229       -1.1703924293
 H        -5.8111726002        2.4213317354        3.9861053805
 H        -4.4893198665        2.9020258272        3.0168584603
 H        -6.3983458507        0.4360758916        2.6349414304
 H        -4.7545452239        0.3357208868        3.1907949569
 H        -7.2713472041       -2.5701544950       -1.0042323062
 H        -7.2569869288       -0.8895609690       -1.6129508417
 H        -9.1950731563       -1.8825863301        0.5024076771
 H        -9.6441721510       -1.8393239639       -1.2470785246
 H       -12.1995648544       -0.5026558865        2.6226386036
 H       -13.2151196540        0.9278873728        1.9793174219
 H       -12.0459005312        1.0806977368        3.1445316468
 H       -11.0669988508        1.9713100521       -1.5371133547
 H       -12.7005187567        1.4981237723       -1.2614705103
 H       -11.7311421997        0.5321719753       -2.3902508700
 H       -13.0601062694       -0.7378401443       -0.1460795847
 H       -11.6194240815       -1.6819779849        0.5830884821
 H       -11.9471770322       -1.5096424850       -1.1673350886
 H        -3.6262065455       -0.2018432627       -1.0301445327
 H        -5.2576880466       -0.1494232034       -1.6609213821
 H        -4.4055500354       -1.7180507836       -1.3744730036
 H        -4.1441396407       -2.6927981370        0.6406351636
 H        -4.7820558754       -2.2215775362        2.1191417704
 H        -3.3445755584       -1.3356016541        1.5091226171
 H        -3.9558320677        4.6700993740        1.1600212081
 H        -4.6612899761        5.2663173490        2.7319152830
 H        -4.8298810252        6.2829628609        1.3888105247
 H        -6.9372257426        5.9785413556        2.4942390909
 H        -8.2281913289        4.9650338861        1.7603951939
 H        -7.4186294999        6.2552786624        0.8029384007
 H        -5.9397396708        5.0693258152       -6.2862140506
 H        -7.5823572933        4.3498181738       -6.2040701918
 H        -6.3107109823        3.6572775298       -5.2281555769
 H        -8.0345095250        6.9482557798       -5.9043980823
 H        -6.3681920436        7.3279625111       -5.6215315341
 H        -7.5989830911        7.8211884142       -4.5430355112
 H       -13.0721154662        5.9784986845       -2.4935810884
 H       -14.1860916757        7.0383218094       -1.4943295138
 H       -13.6521622839        5.4506277006       -1.0376944114
 H       -10.8173408639        8.6837477145       -1.0111319750
 H       -12.5368572597        8.8691348934       -0.9940553408
 H       -11.7219892776        8.2082605991       -2.4071889165
 H       -15.9873727903        8.5960980197        2.9584165118
 H       -16.7488696528        8.8191849975        1.3164884133
 H       -14.9334243659        8.4378013393        1.4498412684
 H       -17.7797169408        5.5759913897        2.7869826001
 H       -18.3551627324        7.1925571185        2.3555376066
 H       -17.3343224845        7.0054530297        3.7310872054
 Na       -9.0577559981        3.4069230168        0.2405738638
