117

 C       -17.6446676300        5.2637867866        0.2306547387
 C       -16.5968840930        6.3114408210        0.5236120868
 O       -15.9596802286        6.6771135165       -0.4568074524
 C       -16.2554367121        6.7908385066        2.0204517526
 C       -15.0853766898        5.8406627073        2.4481407624
 O       -15.3978879017        4.6454335466        2.4903408740
 C       -13.6347150316        6.2883467764        2.7367280923
 C       -12.5625809340        6.0691495712        1.5008739832
 C       -12.4617551033        7.1481613585        0.4632989755
 O       -12.5901728348        8.3328534536        0.7329127123
 C       -11.9841577275        6.7822265634       -0.9720095546
 C       -10.8732426419        5.7021034716       -1.1018855033
 O       -10.4124253927        5.1379252162       -0.1042083122
 C       -10.3575657643        5.3357696460       -2.5000298989
 C        -8.9612018200        5.9256863851       -2.9596262877
 C        -8.3748588999        5.0053048229       -4.0694891865
 O        -8.9567830684        4.0480894787       -4.5224436848
 C        -6.9781344156        5.4317159271       -4.6303571205
 C        -5.9904486608        5.7052290285       -3.3898992641
 O        -6.0097136044        6.8036243547       -2.9215094148
 C        -5.3224972708        4.5097105035       -2.6604249156
 C        -4.9830574840        4.7727740734       -1.2264623460
 C        -6.1801877800        4.5291445929       -0.3023350032
 O        -7.1920523432        4.0566631526       -0.7040159687
 C        -5.9568217161        4.8221281377        1.1969458182
 C        -6.3731494611        3.5870315141        2.0141940407
 O        -7.5100297239        3.2372779933        2.0940372211
 C        -5.3616930570        2.6361011864        2.7338229639
 C        -5.6069605673        1.1991128642        2.4177831306
 C        -5.5599006926        0.8126810438        0.9694517135
 O        -5.7000175644        1.6743880038        0.1168097596
 C        -5.4118187768       -0.7487272118        0.5599846116
 C        -6.9163988607       -1.2836935267        0.7486408786
 O        -7.4419109126       -1.3479894210        1.8366747201
 C        -7.6659676370       -1.7958289951       -0.5001244698
 C        -9.2646479188       -1.4878800929       -0.4592760951
 C        -9.6082715474       -0.0755262459       -0.2337838768
 O        -8.8049585232        0.8169486404       -0.4923719769
 C       -11.2161706933        0.2873764394        0.0137878255
 C       -11.5233501831        1.0390570737        1.3581795991
 O       -10.9380749345        2.1096798619        1.5526318730
 C       -12.2953317931        0.4731808062        2.5175456078
 C       -11.7365421456        1.2136629375       -1.1669257048
 C       -12.0628569284       -1.0231552156       -0.0548365343
 C        -4.8896829813       -0.8759409448       -0.8598556509
 C        -4.4781234974       -1.4037025939        1.5372631062
 C        -4.4547827779        5.1929860363        1.5527243514
 C        -6.9074518237        6.0002872742        1.5485687240
 C        -6.4372116167        4.2895942410       -5.4454131707
 C        -7.2090311230        6.6807154727       -5.4520936026
 C       -13.2642937220        6.1253586096       -1.7449143815
 C       -11.6046801652        8.1161060757       -1.7559163558
 C       -15.7961293729        8.2606231613        1.9804350708
 C       -17.5425390388        6.6795508822        2.9481651213
 H       -18.6139550720        5.7666343599        0.1905791789
 H       -17.6764507742        4.5407522515        1.1116111147
 H       -17.4723730629        4.8698462148       -0.7373570719
 H       -13.2533799274        5.7171064583        3.6072838996
 H       -13.7143885510        7.3254144421        3.1133404979
 H       -12.8253663564        5.1678023008        0.9008303341
 H       -11.4580146495        5.8961498277        1.8439460966
 H       -11.1514392152        5.5251893353       -3.1928012717
 H       -10.2142743376        4.1556146316       -2.5615187680
 H        -8.3303728465        5.8674855244       -2.0990425161
 H        -8.9398807849        6.9668824804       -3.2838617949
 H        -4.4023495617        4.3923911537       -3.2638091224
 H        -5.8044957680        3.6106123582       -2.8070583672
 H        -4.6567874188        5.8119175583       -1.1155466816
 H        -4.1101467137        4.2373170228       -0.9223905159
 H        -5.4740199373        2.7411067259        3.7912177576
 H        -4.3297975063        2.9610059816        2.6140726399
 H        -6.5610280003        0.9393080423        2.7991900832
 H        -4.8625963715        0.5845680861        2.9514305993
 H        -7.5290673020       -2.9202200341       -0.4497443014
 H        -7.2584618924       -1.5328779029       -1.5116931293
 H        -9.7025806763       -2.0776385302        0.3295165743
 H        -9.6903428930       -1.7223077150       -1.4405095792
 H       -11.6010885150        0.0463623054        3.2256575372
 H       -13.1515665747       -0.1946860622        2.2270295500
 H       -12.7211586417        1.2793611932        3.0614978185
 H       -11.4179034205        2.2790212936       -1.1443776510
 H       -12.8098808274        1.2676109492       -1.0890587135
 H       -11.6389836219        0.8343794939       -2.1543473033
 H       -13.0825843645       -0.7437543336        0.0989198166
 H       -11.7767069816       -1.7888102089        0.7039545002
 H       -11.7380159772       -1.5315139985       -0.9602056782
 H        -3.8099291807       -0.6106939553       -0.9221142070
 H        -5.4604312762       -0.2210507659       -1.5053241780
 H        -5.0141675208       -1.9188914402       -1.2719510254
 H        -4.2967364948       -2.5364338684        1.4732917412
 H        -4.7517682316       -1.1383549445        2.5935610798
 H        -3.5585889309       -0.9086671082        1.4448829136
 H        -3.7369007285        4.6382991509        0.9744053127
 H        -4.2858776523        5.1319367336        2.6271052925
 H        -4.3010804555        6.2792931233        1.1686711731
 H        -7.0495329762        6.0526923498        2.6265029568
 H        -7.8650430555        5.7876760819        1.0830282632
 H        -6.6380677354        6.9576926516        1.0772537734
 H        -5.3744023253        4.1915503102       -5.4090744816
 H        -6.7633471687        4.4590104221       -6.5312183296
 H        -6.8676339761        3.3833036609       -5.1230417021
 H        -8.0154850379        6.5644294869       -6.1944477232
 H        -6.3033834656        7.0842716672       -5.9383465136
 H        -7.4639800627        7.5593756963       -4.7666475115
 H       -13.1938887515        6.4916980823       -2.7841291140
 H       -14.2400062382        6.4265044741       -1.3087615745
 H       -13.1706443900        5.0616249023       -1.8168049677
 H       -10.5724166320        8.3688387233       -1.5562466372
 H       -12.3350188317        8.8440547549       -1.4621112114
 H       -11.7625310154        7.9117062088       -2.8513236527
 H       -15.6744980913        8.5214626053        3.0194477670
 H       -16.5905911494        8.8889167286        1.5911794097
 H       -14.8793180085        8.4390317303        1.4406084250
 H       -17.7675923263        5.6304121276        2.8705156861
 H       -18.4001195127        7.2492208290        2.5609155021
 H       -17.3250989283        6.9912536159        3.9684307714
 Na       -9.0864555226        3.0275084767        0.2740597882
