117

 C       -17.6688950368        5.2761795539        0.4799244575
 C       -16.6172355502        6.3680374886        0.6938955257
 O       -16.0113005060        6.7545671738       -0.2781311662
 C       -16.0720611005        6.9256186025        2.0438069556
 C       -14.8317926494        5.9824484399        2.3351889537
 O       -15.0788715973        4.7629840631        2.4791038944
 C       -13.4181470140        6.4080357796        2.4695358600
 C       -12.5487486969        5.8721204670        1.2986116658
 C       -12.4580875804        6.9672507431        0.2031155573
 O       -12.5489261667        8.1546268813        0.3823534667
 C       -11.9917264300        6.4787958269       -1.2603601868
 C       -10.9060549161        5.3430267026       -1.2677637451
 O       -10.4958073514        4.9831872864       -0.1468762580
 C       -10.2752228466        4.8810123037       -2.5448626266
 C        -8.9844374073        5.6501620215       -3.0499049883
 C        -8.3372220844        4.7975858398       -4.1442639594
 O        -8.8935734604        3.9291504140       -4.7156860161
 C        -6.8459826454        5.2137262206       -4.6510352827
 C        -5.9710636650        5.4634860336       -3.3702794889
 O        -6.0167448026        6.5645999253       -2.8564444429
 C        -5.1546228681        4.3408931657       -2.7454875467
 C        -4.8198967713        4.6254164761       -1.2551821765
 C        -6.0642556787        4.6707504926       -0.3781514371
 O        -7.1726162903        4.4230882092       -0.8224704212
 C        -5.8859858550        5.0822126712        1.1904405219
 C        -6.3906554693        3.7924631212        1.9511005840
 O        -7.5138658774        3.3762794794        1.8202875078
 C        -5.3266080745        2.8520779877        2.5985556017
 C        -5.8067034270        1.3599362492        2.5640675848
 C        -5.7162301049        0.8720454809        1.0903605401
 O        -5.5733475654        1.7019470489        0.2209562005
 C        -5.7283109437       -0.7031683729        0.7137555641
 C        -7.2634768191       -1.1224260117        0.7763392882
 O        -7.7360947178       -1.1337535769        1.8763818715
 C        -7.9511691611       -1.5590012301       -0.4449934102
 C        -9.4435688652       -1.4858740033       -0.0592080682
 C        -9.8797724923       -0.0606825333       -0.0895495065
 O        -9.0534340562        0.8180322812        0.0446980519
 C       -11.3870825762        0.3245800601        0.1058508105
 C       -11.4070860876        1.1183655324        1.4958664116
 O       -10.8239939372        2.1947591343        1.5722042298
 C       -12.0380741445        0.4418197956        2.7093622470
 C       -11.7500877054        1.1992822269       -1.1180163701
 C       -12.3399157415       -0.9011070471       -0.0269656134
 C        -5.1706177557       -0.8218357378       -0.6847296054
 C        -4.8259029743       -1.4764676120        1.7442138621
 C        -4.4407284067        5.4035058602        1.5362364504
 C        -6.8806238312        6.2542837348        1.4104063466
 C        -6.3314257018        4.0422364666       -5.5588011439
 C        -7.0950121062        6.5797569557       -5.4609516064
 C       -13.2981631835        6.0367735468       -1.9844389023
 C       -11.4267024814        7.7269753775       -2.0182146399
 C       -15.7203320037        8.3776275339        1.9570415613
 C       -17.0758909840        6.6053061644        3.2545222423
 H       -18.5727455941        5.4172713659        1.1199181342
 H       -17.1304557895        4.3252906644        0.6444090213
 H       -17.9829044557        5.3335794500       -0.5873317106
 H       -13.0820047344        6.0004934794        3.4486585284
 H       -13.3120395428        7.4767892916        2.7030821301
 H       -12.9781578764        4.9613253657        0.8072937942
 H       -11.4569868668        5.6300197257        1.6023975535
 H       -11.0789065820        4.7769338542       -3.3090176949
 H       -10.0077430657        3.7254862269       -2.4028049649
 H        -8.3307644382        5.7212659172       -2.2018435778
 H        -9.2780820352        6.6878239895       -3.4080586946
 H        -4.2332060969        4.2769705511       -3.3520509867
 H        -5.6359248651        3.4430792023       -2.8829353885
 H        -4.3507458216        5.6114468066       -1.2335380857
 H        -4.0930891316        3.9750410804       -0.8539295602
 H        -5.1260793835        3.1261543965        3.6042618673
 H        -4.3905180935        2.9641509096        2.0564604934
 H        -6.8161047264        1.2073184726        2.8666510465
 H        -5.1304911639        0.8018992909        3.2372864263
 H        -7.5730796098       -2.5596408686       -0.8379722479
 H        -7.7022120557       -0.8653021724       -1.2324587759
 H        -9.4634265927       -1.7086121534        1.0174862092
 H       -10.0706907787       -2.1384267828       -0.6550912374
 H       -12.0298955568       -0.6429194998        2.6707861288
 H       -13.1155718611        0.7343706927        2.6580941237
 H       -11.6179462937        0.7976316849        3.6367423277
 H       -10.9766885302        1.9843374460       -1.4268218401
 H       -12.6306345146        1.7376373162       -0.9900259956
 H       -11.8406091818        0.6235564678       -1.9822868779
 H       -13.4603048076       -0.7333244761        0.0347825418
 H       -12.1723880561       -1.6273390489        0.8045933075
 H       -12.0790274720       -1.3848306351       -1.0460384759
 H        -4.1120215102       -0.8931669695       -0.7651851399
 H        -5.4986361407       -0.0279430182       -1.3235877589
 H        -5.6523168268       -1.6749555037       -1.0827275027
 H        -4.5602330913       -2.5534962817        1.4993274366
 H        -5.2405343113       -1.3940850452        2.7616832951
 H        -3.8751434310       -1.0540744649        1.7969334177
 H        -3.7072379986        4.7252232212        1.1614200016
 H        -4.3040301142        5.4089778429        2.5775460569
 H        -4.2936940593        6.4517473089        1.0975624103
 H        -6.9085217809        6.5249064513        2.4463611448
 H        -7.8823838117        5.9712760691        1.1914422003
 H        -6.6324609391        7.1677048597        0.8344457526
 H        -5.5503942831        4.3629081660       -6.2091102270
 H        -7.1669446350        3.5350330085       -6.1663528185
 H        -5.9415819893        3.3098721440       -4.9019289577
 H        -7.5712625371        6.5026555133       -6.4285404614
 H        -6.1261665654        6.9735148936       -5.8089113288
 H        -7.5034498593        7.3629127250       -4.7745734016
 H       -13.0113864332        5.6073024458       -2.9647138667
 H       -13.9205453874        6.9187817678       -2.2267928661
 H       -13.8496658998        5.3735331894       -1.3161687392
 H       -11.5782398970        8.5989267387       -1.2760981650
 H       -12.0064403537        8.0109434565       -2.9366919064
 H       -10.3889641567        7.5949795117       -2.3064748295
 H       -15.0683349468        8.6151375766        2.7649566125
 H       -16.6286041368        8.9821369109        2.0709313847
 H       -15.2717668100        8.6321936920        1.0315949364
 H       -17.0094912044        5.5386371301        3.4732353721
 H       -18.1237009485        6.8346416164        2.9204117872
 H       -16.7830050972        7.1055920844        4.1986845815
 Na       -9.0700926324        3.3511170354        0.2787717528
