117

 C       -17.6594389551        5.2919493680        0.7719375952
 C       -16.5929728512        6.4027553028        0.7908117718
 O       -16.2009640627        6.8992509283       -0.2550542994
 C       -15.9173322650        6.9055488996        2.1194812246
 C       -14.6705221418        5.9812213778        2.3466341533
 O       -14.9347789041        4.8326035015        2.4951045733
 C       -13.2119816314        6.5367289529        2.4060573952
 C       -12.5785952028        5.9024966705        1.1250188047
 C       -12.3290166077        6.9196295454       -0.0178581490
 O       -12.4247150057        8.0818800466        0.3059907677
 C       -12.0671209567        6.4068420150       -1.5329448289
 C       -10.8627157320        5.4709886235       -1.6811326349
 O       -10.3603397252        5.1098156696       -0.6509400299
 C       -10.4058810863        4.8978946310       -3.0646527859
 C        -8.8965418784        5.2162168828       -3.1707131313
 C        -8.2096985589        4.4019136812       -4.2594296085
 O        -8.6579213909        3.3649595882       -4.7487719240
 C        -6.7838232777        5.0173841113       -4.7629447832
 C        -6.0814746997        5.2759577918       -3.4174351606
 O        -6.3167959602        6.2828981280       -2.7614029400
 C        -5.2499092283        4.1355557222       -2.8462639323
 C        -4.9977011188        4.3646286911       -1.3142189007
 C        -6.1628560982        4.2145497331       -0.4005970682
 O        -7.2103048179        3.7388611770       -0.9069204012
 C        -6.0474669148        4.7973255367        1.0729719006
 C        -6.4531279686        3.6711043980        2.0382954518
 O        -7.5897781678        3.2781508442        2.0888560450
 C        -5.3973460371        2.8775837922        2.9472143615
 C        -5.5149438221        1.3505280443        2.6953483343
 C        -5.4552290521        0.9316318982        1.2568356520
 O        -5.2456314828        1.7748515630        0.3780758769
 C        -5.6665853334       -0.6135856334        0.9515322810
 C        -7.3006994789       -0.8723158872        1.0686748738
 O        -7.9769928438       -0.4026274123        2.0015914715
 C        -8.1237062039       -1.6163237063       -0.1016571696
 C        -9.6751479668       -1.2801339042        0.0456942163
 C        -9.8974219159        0.2467538979       -0.0936612631
 O        -9.0663977710        1.0505224758       -0.4790733702
 C       -11.4071484177        0.7180046521        0.2888267326
 C       -11.3430833567        1.5117351666        1.6271436537
 O       -10.6723387319        2.5216313885        1.6635847339
 C       -12.0773837568        1.0268665856        2.8503731844
 C       -11.8915303311        1.7015160801       -0.7961447743
 C       -12.2984976860       -0.5370457363        0.3679696093
 C        -5.2560991195       -0.8718090910       -0.5356323815
 C        -4.9267215726       -1.5193513007        1.9110525219
 C        -4.6490567244        5.4062784449        1.4698629206
 C        -6.9972453616        6.1072872515        1.0551842557
 C        -6.0906699383        4.0602467165       -5.6879558587
 C        -7.0428918929        6.3286217860       -5.4289596095
 C       -13.4317717412        5.7444323544       -1.8849961841
 C       -11.8183468324        7.6077317463       -2.5165832288
 C       -15.5254655642        8.4024691963        1.9209862825
 C       -16.7406144742        6.6556453429        3.3553858225
 H       -18.6447338174        5.7880193157        0.5593041949
 H       -17.6531402761        4.7282013225        1.7143528777
 H       -17.4263573404        4.5513778676       -0.0358890721
 H       -12.7308442754        5.9852281501        3.2369037247
 H       -13.0967453128        7.6209763733        2.5810306578
 H       -13.2728500475        5.0337268847        0.7492983301
 H       -11.5913752053        5.4688217241        1.4135970915
 H       -10.9056373080        5.1998819496       -4.0910725662
 H       -10.4152327143        3.7851242444       -2.9124157584
 H        -8.4567854706        4.8006211079       -2.2559343947
 H        -8.7136326556        6.2980162536       -3.2616709044
 H        -4.3082943325        4.1155338355       -3.2871367183
 H        -5.7908041540        3.1985589747       -3.0459883361
 H        -4.5530677207        5.3448105523       -1.2527110423
 H        -4.2698810064        3.6788892363       -0.9934580129
 H        -5.6424646792        3.1208400091        3.9546248043
 H        -4.4106193005        3.0808738509        2.6545259653
 H        -6.4226010481        0.9208940420        3.1753533122
 H        -4.6567873822        0.9143609280        3.1496561784
 H        -7.9490872116       -2.6955821033        0.2096061436
 H        -7.7315712290       -1.4738676300       -1.1516955988
 H       -10.0715289771       -1.7104274626        0.9839673894
 H       -10.2622273857       -1.6844789611       -0.7685788374
 H       -12.0288562406       -0.0637426788        2.7496029603
 H       -13.1195522176        1.1732055592        2.8162385973
 H       -11.6250213902        1.4284640242        3.7907219080
 H       -11.3423728268        2.5432424789       -0.8865968367
 H       -12.9075970396        2.0192494339       -0.5701272912
 H       -11.8451101783        1.2804527333       -1.8097313182
 H       -13.3715474279       -0.2967040287        0.3039720703
 H       -12.0178062541       -1.2810030735        1.1381925248
 H       -12.3962522935       -1.0796644871       -0.5829059046
 H        -4.2893011019       -0.5018382458       -0.7547793120
 H        -5.9642584710       -0.3553790081       -1.1746040163
 H        -5.2185954316       -1.8974816284       -0.7625658204
 H        -4.9792814303       -2.5422497437        1.6928472175
 H        -5.2734095616       -1.4901014610        2.9247802575
 H        -3.8036123296       -1.2552703391        1.9026549710
 H        -3.9282376912        4.5722933417        1.2533274571
 H        -4.5997947454        5.6913131339        2.5312497236
 H        -4.3677726256        6.2317682228        0.9548802985
 H        -6.9776577250        6.6545379921        1.9869997893
 H        -8.0550806042        5.8594011951        0.9264782383
 H        -6.7120356779        6.8420814202        0.3298952269
 H        -5.0043852380        4.2090509356       -5.8424473291
 H        -6.5749951133        4.0870471111       -6.5841202721
 H        -6.2773866433        3.0046334653       -5.3419441710
 H        -7.8057407443        6.2102232970       -6.2355236846
 H        -6.0768843770        6.6973586243       -5.8411502529
 H        -7.4823216457        7.0522117371       -4.7827073067
 H       -13.3040477582        5.4621772263       -2.9282971433
 H       -14.3321161717        6.2802925227       -1.5823466696
 H       -13.3274101360        4.7715096430       -1.3286518455
 H       -12.0499272774        7.3223867350       -3.5605272660
 H       -10.7478894630        8.0060719301       -2.5365737680
 H       -12.4960568926        8.4531582406       -2.2011475336
 H       -14.7414183609        8.8231989009        2.5109901351
 H       -16.3505727437        9.1034480732        1.9175474492
 H       -15.0954870525        8.4277210152        0.9218684343
 H       -16.7528469625        5.5699054763        3.6093193430
 H       -17.7688919966        7.0030935134        3.1905535858
 H       -16.3622510777        7.2492772586        4.2047909075
 Na       -9.0605785744        3.3997739544        0.2682664750
