117

 C        -5.1960684923       -4.5379564046        4.4067217241
 C        -5.8759395494       -5.3807565861        3.2463992111
 O        -5.2720457886       -5.8769744905        2.3576642960
 C        -7.4050432680       -5.3437651696        3.0084794729
 C        -7.9398130361       -4.2654847567        3.9317182105
 O        -7.8737395105       -4.3722083316        5.1889059067
 C        -8.5689141860       -2.9918628965        3.3487286445
 C        -8.3622978651       -1.7957498259        4.2884532350
 C        -9.3193068582       -0.7154675869        3.9235873861
 O        -9.8157622832       -0.5701637957        2.8307720956
 C        -9.7649468281        0.3836885211        5.0563745290
 C        -9.4466714422        1.8992137773        4.4958654254
 O        -8.7694610820        2.6493516554        5.1730582101
 C       -10.2297975737        2.3286310169        3.1945777552
 C        -9.2417387693        2.3289937876        1.9488908712
 C        -9.8192468921        2.8423682520        0.6675496439
 O        -9.3566709612        3.9111260353        0.2212287114
 C       -10.8724793026        2.0781908414       -0.1898008381
 C       -12.3020197815        2.4899349280        0.1690336970
 O       -12.6315894299        2.6534794188        1.3143894296
 C       -13.4532278441        2.5643765857       -0.9260110474
 C       -14.0290264851        3.9556952698       -1.1302801575
 C       -13.0466754558        5.0815950117       -1.2108625470
 O       -11.9468570000        4.9205085910       -0.6532370474
 C       -13.5497687417        6.3359110738       -1.9925536032
 C       -12.5887990480        6.4729758267       -3.3040556657
 O       -11.4807459230        5.9748209067       -3.2131324997
 C       -13.0591341071        7.3056214131       -4.4742653438
 C       -11.7922957106        7.8356064271       -5.1470981976
 C       -11.5660972177        9.3614919109       -4.8683685096
 O       -12.3645071706       10.1295666320       -4.3458970546
 C       -10.1598333360        9.9402162968       -5.2396605431
 C        -9.2504716179        9.8722868101       -3.9286244290
 O        -8.0961789706        9.5818825484       -4.0887772242
 C        -9.7848004910       10.2223582794       -2.4744356767
 C        -8.8031446087        9.9282492158       -1.3636786953
 C        -8.6018653108        8.4762236789       -0.9978949492
 O        -9.6960065972        7.8770229026       -0.8581589846
 C        -7.2384597003        7.7861072405       -0.6607119035
 C        -6.9193684316        6.7498539619       -2.0216734417
 O        -7.5896430273        5.7158561075       -2.0367243390
 C        -5.9107588212        7.0772793879       -3.0800029182
 C        -6.1069166184        8.8219590407       -0.4886281906
 C        -7.4434911556        6.8470936954        0.5891309592
 C        -9.3267345588        9.2296387822       -6.3210552332
 C       -10.4183296186       11.4426239882       -5.6071004183
 C       -15.0356613027        6.3420837110       -2.3311116194
 C       -13.0834135864        7.5793363049       -1.0705420254
 C       -10.5013104342        2.3650400692       -1.7091717404
 C       -10.7252905812        0.5189327141        0.0246760983
 C       -11.3322945727        0.3321910533        5.1699043647
 C        -9.1352022847        0.1668334342        6.4873826248
 C        -7.8810607020       -5.1552371795        1.4855971980
 C        -7.8260422938       -6.6767942203        3.6125984977
 H        -5.5212226571       -3.5260110070        4.2424061147
 H        -4.1441522510       -4.5037650887        4.3176729686
 H        -5.5579836415       -4.8049322578        5.3958328814
 H        -9.6960177920       -3.1281906410        3.4036923997
 H        -8.2305085004       -2.7763286290        2.3181824320
 H        -7.3832598062       -1.2614751492        4.2189128214
 H        -8.6161388963       -2.2204478738        5.3043054859
 H       -10.6287499537        3.3325212740        3.2927635378
 H       -11.0725770913        1.6210563010        2.9898416957
 H        -8.8243016309        1.3513958558        1.7786381680
 H        -8.4287376814        2.9893004122        2.1923915279
 H       -14.2475604633        1.8850556261       -0.7959001128
 H       -13.1429575426        2.1467818349       -1.8566356709
 H       -14.8214804105        4.1413018453       -0.4189996707
 H       -14.6605246211        3.9518952499       -2.0623321976
 H       -13.7064653282        8.0929310197       -4.0141445836
 H       -13.7682955214        6.6121828408       -5.1420224970
 H       -11.9189299269        7.6877712908       -6.2271087522
 H       -10.9552663483        7.2143340644       -4.7529212385
 H       -10.7313913410        9.8014733723       -2.3073283659
 H        -9.9237102173       11.3521105147       -2.5923641460
 H        -9.1682353651       10.4115107356       -0.4409655426
 H        -7.8119693013       10.4297257516       -1.6409708053
 H        -6.4047786680        7.8580870642       -3.6234518455
 H        -5.7046946438        6.1511945065       -3.6902007028
 H        -5.0256909181        7.4649115746       -2.5812755598
 H        -6.2905597812        9.2842139186        0.4989185161
 H        -5.8840463522        9.5892679982       -1.1776881135
 H        -5.2360811294        8.1873033401       -0.3708534067
 H        -8.0748255905        7.3509762018        1.2309479046
 H        -6.5617488698        6.7688163676        1.1766865482
 H        -7.8725257197        5.8484953013        0.3255507696
 H        -8.4247495484        9.6897331978       -6.5978898549
 H       -10.0389033411        9.1374253588       -7.0797633305
 H        -9.1702992291        8.1970811747       -5.9970597429
 H        -9.5363966833       11.9303558367       -6.0752909964
 H       -10.7895479537       12.0613652992       -4.8342351288
 H       -11.1846147015       11.5983251532       -6.4059913665
 H       -15.7148038743        6.0416233778       -1.4986229628
 H       -15.2467328614        5.7781408557       -3.2943258321
 H       -15.1621127807        7.3476912891       -2.7140173922
 H       -13.6434448988        7.6358355662       -0.0607663168
 H       -13.2034324917        8.5201038505       -1.6655509187
 H       -12.0111042334        7.5028216869       -0.7574932431
 H       -11.2742098818        1.8016579676       -2.3133427784
 H        -9.5491007435        1.9759796931       -1.8465581631
 H       -10.5069543196        3.3706187743       -2.0302091454
 H       -10.8230189920        0.3385176332        1.0706606568
 H        -9.6996577443        0.2314343983       -0.2833495548
 H       -11.3209814033       -0.1240134111       -0.5293428036
 H       -11.6608900568       -0.4559201716        5.8227762367
 H       -11.8408786066        0.2512990084        4.1800289283
 H       -11.6981122944        1.2688228708        5.6203008925
 H        -9.6766061379       -0.5061108689        7.1285124469
 H        -9.1245294686        1.1724123099        6.9338037928
 H        -8.1806334881       -0.1985174976        6.2700312932
 H        -7.6971098445       -4.1368982184        1.1184741003
 H        -8.9707611640       -5.2802779528        1.2834251412
 H        -7.5924211246       -5.9552157520        0.8168927938
 H        -7.2953148300       -6.8370036528        4.5330675489
 H        -7.5216648838       -7.4324366562        2.9381077426
 H        -8.8352979190       -6.7574290072        3.8834092599
 Na       -9.7170685275        5.6421498428       -1.1971685067
