117

 C       -13.3145705747        6.9988421057       -5.9385958356
 C       -11.8261530094        7.3266115134       -5.9328419901
 O       -11.1227648619        6.6183312856       -5.3037973117
 C       -11.3132083897        8.5262679571       -6.7804349245
 C       -10.8424031077        9.4514244348       -5.5206697735
 O       -11.5467138180       10.2096933788       -4.9252861466
 C        -9.2643272167        9.3768666823       -5.1225843124
 C        -9.1451834198        9.0325970740       -3.6083179896
 C        -7.6978721406        8.8181903847       -3.0605468687
 O        -6.7340988614        9.3671640263       -3.5116131719
 C        -7.6986523450        8.1469681503       -1.6009611107
 C        -8.7579925067        6.9923752843       -1.4340826899
 O        -9.7322213134        7.1393123906       -0.6763174503
 C        -8.6550201642        5.8118130034       -2.3712558963
 C       -10.0184449400        5.1294156864       -2.5834109658
 C       -10.2028235791        3.9139387323       -1.6507556653
 O        -9.2157346412        3.4649977523       -1.1121192498
 C       -11.5871059587        3.1714184916       -1.8422460050
 C       -12.2316054070        2.6896362575       -0.4453583067
 O       -11.9580607462        1.6237138100        0.0138865655
 C       -13.2113714100        3.6717869735        0.2370166314
 C       -12.8966824115        3.6987352112        1.7279992735
 C       -11.3992243862        4.0878632707        2.0612094223
 O       -10.5172540360        4.2262399796        1.1885395239
 C       -10.9233291765        4.1797144573        3.5424095989
 C       -10.8252655665        2.7174492372        4.1143909246
 O       -10.7418297109        1.8390819242        3.2539457367
 C       -10.4617108945        2.3948236897        5.5773493360
 C        -9.6724235949        1.1119604178        5.7204016580
 C       -10.5322337576       -0.2092539853        5.7922217608
 O       -11.6709011676       -0.3348930902        6.1024492454
 C        -9.7570583160       -1.6902771321        5.3695573549
 C        -8.8724846014       -1.5982635266        4.0988994981
 O        -7.9400577114       -0.7703679714        4.1566289989
 C        -9.1511135313       -2.4202814281        2.8183704174
 C        -7.9824925570       -2.4332629033        1.8311243465
 C        -8.0418303934       -1.1773969106        1.0107323972
 O        -9.1142882722       -0.6456420714        0.7175202191
 C        -6.7345103989       -0.3810337527        0.5439234808
 C        -6.6023489292        1.0550697510        1.1541903731
 O        -7.6177726040        1.7055917132        1.4852984460
 C        -5.1596278150        1.5632365421        1.3422048493
 C        -5.4376063107       -1.2117647264        0.7389453565
 C        -6.9630061799       -0.1341627965       -0.9683583739
 C        -8.9552617096       -2.1033519364        6.6546329638
 C       -10.9081201122       -2.5739922158        5.2032461363
 C        -9.4221465019        4.6459928318        3.5708637557
 C       -11.8078265381        5.1662888475        4.4219651723
 C       -12.4344153377        4.1685453327       -2.6361567956
 C       -11.3825959300        1.7761141540       -2.6738486467
 C        -6.3201466314        7.6309513847       -1.2789788882
 C        -8.1402778951        9.2845615105       -0.6619825481
 C       -10.1072693123        8.0762473478       -7.7401217905
 C       -12.5022960919        9.2333254458       -7.4610814944
 H       -14.0549133359        7.8111331710       -5.6531571633
 H       -13.5341083499        6.1102102470       -5.2995892409
 H       -13.6610265424        6.6611988231       -6.8739454546
 H        -8.7417507930       10.2877528601       -5.4155185954
 H        -8.6872920130        8.6217255866       -5.7367466747
 H        -9.8444369277        8.1488257155       -3.4552414797
 H        -9.5465538830        9.8526433551       -3.0228923125
 H        -8.0067015234        5.0354750199       -1.9715137863
 H        -8.3171266198        6.2413992057       -3.3543736211
 H       -10.0788625535        4.7484684930       -3.6783011411
 H       -10.8620202574        5.8522736603       -2.3241751622
 H       -14.3248077295        3.4280928747        0.1848136821
 H       -13.1525661008        4.7022810088       -0.2030530866
 H       -13.1773956709        2.7832313171        2.1547767926
 H       -13.6059122947        4.3190772916        2.3396036202
 H       -11.4202440045        2.2414211749        6.1875809886
 H       -10.0609608456        3.2661344238        6.1412094017
 H        -9.0762095303        1.2153448946        6.6960188152
 H        -9.0720500684        0.9509950544        4.7696715526
 H        -9.9503395930       -1.8799033325        2.2674865669
 H        -9.5119668050       -3.4112571539        3.0674297121
 H        -8.2591430110       -3.3226963162        1.2370134081
 H        -7.0497211877       -2.5282351181        2.3346435319
 H        -4.6934671236        1.1889918778        2.2281392282
 H        -5.2258760362        2.7219559470        1.5073837730
 H        -4.6147249654        1.4399252947        0.4196652333
 H        -5.5723364120       -2.2538440340        0.5362085618
 H        -4.9999693286       -1.0572619709        1.7401103947
 H        -4.6407112708       -0.9704704398        0.0885755687
 H        -6.8595859251       -1.0885049424       -1.5422164467
 H        -6.2176890775        0.5037359206       -1.3643503220
 H        -7.9126891098        0.2966363089       -1.0293943953
 H        -9.6282377348       -2.2698110863        7.4556923670
 H        -8.3432249056       -1.3290567403        7.0795339018
 H        -8.1876652672       -2.9064417884        6.4541655162
 H       -11.4022296383       -2.7880000078        6.2022021115
 H       -10.4932153738       -3.5626628436        4.8449400503
 H       -11.7120736393       -2.2444487979        4.4920632473
 H        -9.3125612179        5.7197529456        3.2477855731
 H        -8.7554796084        4.0835584592        2.8851570030
 H        -9.0525075239        4.6908515523        4.5832786542
 H       -12.7029125970        5.5075672632        3.9597178061
 H       -11.1543264488        5.9782763806        4.7549989994
 H       -12.0455210034        4.7511535230        5.4732008604
 H       -13.3582007921        3.6451547784       -2.7483761647
 H       -12.1356963171        4.2071754968       -3.7182739301
 H       -12.5818928792        5.1783616291       -2.2396567619
 H       -12.1022900134        1.8489114204       -3.4604485711
 H       -11.4964484676        0.9481653696       -1.9723224005
 H       -10.3614127309        1.6799635674       -2.9793341394
 H        -5.6186144077        8.3799733830       -1.5947157568
 H        -6.1072478776        6.7163788562       -1.8613521178
 H        -6.2398197408        7.4077695282       -0.2214546569
 H        -7.5269299454       10.0999554957       -1.0419056146
 H        -8.0800178186        9.1876029489        0.4475441915
 H        -9.1746061759        9.5138457410       -0.8764900433
 H        -9.4748426821        7.4504899533       -7.1061951377
 H        -9.7066743566        8.9766787323       -8.2726018645
 H       -10.6022152294        7.4332432932       -8.3820246738
 H       -13.4187541480        9.3524539213       -6.9554864736
 H       -12.7275135017        8.6274044871       -8.3507151560
 H       -12.2234891903       10.2661959508       -7.7108993826
 Na       -9.8806891432        1.8786963444        0.8456689419
