117

 C       -17.5455733667        5.3005408939        0.9677669149
 C       -16.4978449343        6.4183952055        0.8176983505
 O       -16.1386501161        6.8473480821       -0.2435711847
 C       -15.7967591731        6.9431295516        2.0919585681
 C       -14.6222773106        5.9479240398        2.2408138473
 O       -14.8469288610        4.7471449327        2.4809597541
 C       -13.1293559568        6.4100374039        2.1364259865
 C       -12.3687366934        5.8886441441        0.9480559568
 C       -12.3593088764        6.8387485326       -0.1909306793
 O       -12.1222250073        7.9900442814        0.0608242305
 C       -12.2765473857        6.3562149100       -1.6634479800
 C       -10.9615444301        5.4584781686       -1.7426104452
 O       -10.4227779874        5.1335512796       -0.6541796163
 C       -10.4700491643        5.0290960640       -3.0885812466
 C        -8.9604042795        5.1807634111       -3.0774681107
 C        -8.2752076654        4.3774375249       -4.2304034240
 O        -8.6156375510        3.2774449954       -4.5975447441
 C        -6.7940008879        4.9488135405       -4.7319768848
 C        -6.0766601251        5.1741575006       -3.4399127661
 O        -6.2314951464        6.1649286986       -2.7256767123
 C        -5.2037852413        4.0215209704       -2.8835407826
 C        -4.8725264859        4.2161576709       -1.4073526065
 C        -6.0318957459        4.0523474382       -0.4489810950
 O        -7.0378348470        3.5326555962       -0.8741567122
 C        -6.0533968202        4.6168722385        0.9653694061
 C        -6.5046503969        3.5311545944        1.9659632165
 O        -7.6953636028        3.1539296858        2.0835328397
 C        -5.4840734342        2.9233036346        2.8520703501
 C        -5.6537140384        1.4152461319        2.8447098782
 C        -5.4484421722        0.9320693307        1.3653239200
 O        -5.0996674213        1.7132447730        0.5273810564
 C        -5.7319033613       -0.5377242538        0.9645416843
 C        -7.3282943274       -0.5278243863        1.1168445187
 O        -7.8280959767       -0.1019898851        2.0914601256
 C        -8.0702661822       -1.2753957308        0.0480611027
 C        -9.5364363308       -1.1169183159        0.2357779417
 C        -9.9348131984        0.3924796694        0.0012510188
 O        -9.1619198166        1.1587490341       -0.4980444892
 C       -11.4222511664        0.8826482422        0.3579443884
 C       -11.3120956401        1.7252247498        1.6882281868
 O       -10.4396470954        2.5584252817        1.7985034209
 C       -12.1035907548        1.1864394965        2.8642491475
 C       -11.9152944391        1.7344118788       -0.8298762548
 C       -12.3915652606       -0.2924215593        0.4782571250
 C        -5.2790994692       -0.8153112839       -0.4973991027
 C        -5.1422362845       -1.5813356542        1.9589567711
 C        -4.6873739556        5.2282956725        1.2901847509
 C        -7.1546910346        5.6844573183        1.0157873059
 C        -6.0732296568        3.9668280013       -5.6686336067
 C        -7.0935977749        6.2309279726       -5.5268079528
 C       -13.5558050548        5.5471335233       -2.1033688902
 C       -12.2245485768        7.6435749873       -2.5118961535
 C       -15.4611692145        8.3857186135        1.9615908057
 C       -16.8006986962        6.9118296306        3.3789276874
 H       -18.5296908826        5.7473763554        0.8922224795
 H       -17.4283841132        4.8062318746        1.8896611694
 H       -17.4119379655        4.5557295952        0.1774745281
 H       -12.6535948639        6.0035487074        3.0280485734
 H       -13.0157615324        7.4992998017        2.1327196813
 H       -12.6208716266        4.9128794102        0.7348718750
 H       -11.2985580415        5.9279866967        1.1650109268
 H       -10.8170687187        5.6323674754       -3.8407439417
 H       -10.6504508579        4.0261920823       -3.3345574843
 H        -8.5114242147        4.7332229820       -2.1931063607
 H        -8.6743747723        6.2372343902       -3.0985905559
 H        -4.2203268960        4.0120974709       -3.4966800162
 H        -5.7420122979        3.0894848327       -2.9401779885
 H        -4.4568817032        5.2466400440       -1.3456200886
 H        -4.0520883560        3.5034809532       -1.0899547303
 H        -5.6674523576        3.3319975769        3.8660068000
 H        -4.4644688828        3.1149278844        2.4222433664
 H        -6.6111002397        1.1646286648        3.2402480646
 H        -4.8943382546        1.0055592713        3.5614178029
 H        -7.8065443958       -2.3205231495        0.0033321561
 H        -7.7464218128       -0.7860182363       -0.8517734570
 H        -9.7357167249       -1.2913223325        1.3034831511
 H       -10.0958939230       -1.9345622546       -0.2791845049
 H       -11.6860384056        0.3276283478        3.3525289154
 H       -13.1517242771        0.8792378589        2.6403842260
 H       -12.0710701943        2.0301482826        3.5304327377
 H       -11.1023525996        2.4230009841       -1.3253760663
 H       -12.7207325845        2.3950643515       -0.5492018590
 H       -12.2946463823        1.1413254804       -1.6429049823
 H       -13.4145268708        0.0269612433        0.6307994668
 H       -12.0476355719       -0.9839625007        1.2247817645
 H       -12.5246673725       -0.9531489650       -0.3817375370
 H        -4.2433295602       -1.1868388281       -0.5480043860
 H        -5.4310037916        0.0616832566       -1.1263746779
 H        -5.8199064743       -1.6791334334       -0.9001948474
 H        -5.6247169292       -2.5995982956        1.7760270758
 H        -5.5054488474       -1.4247271051        2.9884486609
 H        -4.1018474264       -1.6682091120        2.0080212979
 H        -3.8757111408        4.5911355285        0.9519652944
 H        -4.6372249280        5.5339824007        2.3287915054
 H        -4.5138648633        6.2344943222        0.6948007376
 H        -7.1983971781        6.3458852577        1.8635477675
 H        -8.1082585679        5.2158578114        0.9805252789
 H        -7.1362013479        6.3831222702        0.1588553875
 H        -5.2414251427        4.4718068264       -6.1317481148
 H        -6.7630933136        3.6028048442       -6.5063005265
 H        -5.6768516002        3.1027837045       -5.2062593782
 H        -7.7980347949        5.9469035129       -6.3153330607
 H        -6.1616519580        6.6915997282       -5.8698941555
 H        -7.6928525999        7.0071425146       -4.9724962195
 H       -13.4495210088        5.0704298171       -3.0974152301
 H       -14.2965312259        6.3471584681       -2.0024026643
 H       -13.8140675677        4.7668789799       -1.4060735351
 H       -11.5187190489        7.5046057736       -3.3670549597
 H       -11.7577754792        8.4195823537       -1.9679877478
 H       -13.1401784555        7.9635474988       -2.9088508274
 H       -14.7879612088        8.7656034462        2.7185976489
 H       -16.3723773383        8.9922674162        2.0454372887
 H       -15.0240015523        8.7007537398        1.0370491065
 H       -17.0393025545        5.8981502621        3.6587417079
 H       -17.7536750853        7.4243853200        3.1348930734
 H       -16.4078215837        7.4732614054        4.2338844649
 Na       -9.1818355607        3.4631083989        0.2845368188
