117

 C       -17.5561512938        5.2489684323        0.9745508404
 C       -16.5038978746        6.3911814288        0.8573816873
 O       -16.1283970688        6.7687237422       -0.2233924077
 C       -15.7921853374        7.0262383323        2.1610947804
 C       -14.6526037723        5.9927034286        2.3275990161
 O       -14.8716559359        4.8040924572        2.4327351977
 C       -13.1116539966        6.4529625682        2.1956650627
 C       -12.4190834846        5.8143462262        1.0198158403
 C       -12.2688681060        6.8870802849       -0.2108066563
 O       -12.0690825958        8.0635287555       -0.0056347567
 C       -12.3557395376        6.4708819863       -1.7281292101
 C       -11.0549149266        5.5033781054       -1.8450799124
 O       -10.5358100339        5.1231499102       -0.8160033422
 C       -10.5145176050        5.0135618178       -3.1642818468
 C        -8.9649991709        5.1386093956       -3.1942421577
 C        -8.1804285033        4.2832439779       -4.1871981941
 O        -8.6534054166        3.2332752753       -4.6050371755
 C        -6.8729222962        4.9093556380       -4.7229118513
 C        -6.0410020763        5.1362226526       -3.3914499128
 O        -6.0951313522        6.1892331763       -2.7502144624
 C        -5.1093598346        3.9482500678       -2.9463810272
 C        -4.7836115883        4.1099959640       -1.4503880831
 C        -6.0251296669        3.9428980393       -0.5674037750
 O        -7.0597236840        3.3883750854       -1.0106681230
 C        -6.0695882907        4.6455055008        0.9231410139
 C        -6.4593457061        3.5270971120        1.9906315048
 O        -7.6316828371        3.1615273245        1.9862680861
 C        -5.4115326169        2.9308692731        3.0153042348
 C        -5.5318430002        1.3900373034        2.8313502556
 C        -5.2247787952        0.9898006867        1.4668300244
 O        -4.9674950716        1.7878195465        0.5533829981
 C        -5.6989047398       -0.5405519248        1.0723288707
 C        -7.2439517687       -0.5405129260        1.1546013937
 O        -7.8290499659       -0.1043088283        2.1269804885
 C        -8.1329083116       -1.1569259297        0.0142425850
 C        -9.6483082505       -1.0270876162        0.2403311402
 C       -10.0697681621        0.4496291473        0.0930489041
 O        -9.2210156769        1.1349625802       -0.4590783166
 C       -11.4808414043        0.9112225934        0.3696948565
 C       -11.3425511431        1.7295528046        1.7757449834
 O       -10.5491760971        2.6302382073        1.8947075497
 C       -12.1479970638        1.3206444352        2.9515145929
 C       -11.9533515322        1.8806151448       -0.7695005101
 C       -12.4787030438       -0.2541602810        0.4729022133
 C        -5.2138164702       -0.7621070516       -0.3652772588
 C        -5.3056862313       -1.6393855684        2.0204174883
 C        -4.7069619677        5.2904473749        1.3446746812
 C        -7.1845582407        5.7218987282        1.0235574382
 C        -6.2479086369        3.8861229284       -5.6619843189
 C        -7.1067119771        6.2234328089       -5.4554662996
 C       -13.5316622087        5.3835571599       -2.0846709477
 C       -12.3199783570        7.6352007421       -2.6780624393
 C       -15.2446431062        8.4188721778        1.9381036341
 C       -16.7753258162        6.8471126300        3.3306482034
 H       -18.5223297425        5.6713752891        1.1930251442
 H       -17.2806788701        4.5631896292        1.7054442266
 H       -17.5679595042        4.7393632693        0.0025888875
 H       -12.6855642860        6.0080755606        3.0962719641
 H       -12.8767841121        7.4954778339        2.1575826189
 H       -12.8940970698        4.8885703169        0.7958933964
 H       -11.4270134368        5.5856205358        1.2581370016
 H       -10.9862358122        5.4749593624       -4.0861690661
 H       -10.5998152651        3.9592331365       -3.2316704093
 H        -8.6231725280        4.8128503597       -2.2323164356
 H        -8.5894487343        6.2133758311       -3.2925441888
 H        -4.2639293546        3.8994022530       -3.6949680754
 H        -5.7276808398        3.0473501702       -2.8980662480
 H        -4.3532423755        5.1648526663       -1.2610608179
 H        -4.0719763173        3.3769598489       -1.0653487098
 H        -5.7391949922        3.2272733331        4.0364568820
 H        -4.3566961150        3.2234473971        2.7404713623
 H        -6.5727756870        1.0388330951        3.0590939766
 H        -4.8668529816        0.8330217420        3.5427860627
 H        -7.9918656729       -2.2335504129       -0.0201911977
 H        -7.8767972855       -0.7251541455       -0.8805820701
 H        -9.9565523329       -1.4745721083        1.2200011946
 H       -10.1271308166       -1.7228248026       -0.4769095121
 H       -11.6429607980        0.5126582130        3.5010191401
 H       -13.0968554410        0.9056886032        2.7112233313
 H       -12.1970948082        2.2117070643        3.6238402675
 H       -11.1764946522        2.5164168624       -1.1791112732
 H       -12.7826976954        2.5648899465       -0.4634653117
 H       -12.3844699211        1.3176279694       -1.6552928131
 H       -13.5379423909        0.0581862527        0.6788050677
 H       -12.1856959369       -0.9288372515        1.2229178580
 H       -12.5243490867       -0.9485141907       -0.3401973542
 H        -4.1198274035       -0.9137253273       -0.4129294532
 H        -5.5166179746        0.1752930357       -0.9483510827
 H        -5.6162477941       -1.6513274255       -0.8320898251
 H        -5.6796283291       -2.6000747303        1.7361115614
 H        -5.7464819497       -1.5170926844        2.9729396720
 H        -4.2077288515       -1.6903674468        2.2394468999
 H        -3.8114966847        4.6096139340        1.4158328680
 H        -4.9113060837        5.8894198312        2.2201326915
 H        -4.3732321813        5.9754136313        0.6153462016
 H        -7.1327481925        6.3272998208        1.9174545013
 H        -8.1989219959        5.2964831353        1.0430428084
 H        -7.2025800340        6.4948426563        0.2164153416
 H        -5.3512493940        4.2755188412       -6.1711481487
 H        -6.8811736827        3.4696399024       -6.3791231339
 H        -5.8598541260        3.0686907059       -4.9999441275
 H        -7.7796457427        6.0884125311       -6.2878488771
 H        -6.1095651175        6.5916005737       -5.6807160050
 H        -7.5669468982        6.9693845452       -4.8797974181
 H       -13.3524681883        4.9917971653       -3.0759381544
 H       -14.4186248074        5.9220993373       -1.9548511403
 H       -13.5241121634        4.5103916636       -1.4250528238
 H       -11.5747237504        7.5105358906       -3.4701779847
 H       -11.9725814268        8.5170023669       -2.1847830222
 H       -13.2112994652        7.8189781530       -3.1994299589
 H       -14.7101326276        8.8270078563        2.8087904615
 H       -15.9210572488        9.2726055085        1.6126448127
 H       -14.4779787037        8.3954676286        1.1536295037
 H       -16.9918274386        5.8094034923        3.4398584897
 H       -17.7084772599        7.3763975680        3.1634396333
 H       -16.3910651619        7.2602143620        4.2424834974
 Na       -9.0974188246        3.4160841557        0.1397755091
