117

 C       -17.4877899123        5.3312851578        0.9940027521
 C       -16.4769867310        6.4137589641        0.8081917531
 O       -16.1013898872        6.7350853457       -0.3165039635
 C       -15.7540934770        6.9794701226        2.1587928793
 C       -14.5603538714        5.9647596215        2.3672814682
 O       -14.8565898493        4.8074640506        2.4512301014
 C       -13.1331016752        6.4324063115        2.3461628327
 C       -12.5474342308        5.9465879369        0.9386403183
 C       -12.3441215052        6.9386857586       -0.1780624678
 O       -12.0622267436        8.0771159140        0.0743623862
 C       -12.3098038210        6.4030031144       -1.7972068155
 C       -11.0896971780        5.4541503045       -1.9528525053
 O       -10.5606775264        5.0518135106       -0.9447011137
 C       -10.5414265092        4.9840150429       -3.2750107283
 C        -9.0362387099        5.1342319784       -3.2267558357
 C        -8.2874918703        4.2874381217       -4.2419430625
 O        -8.6766703097        3.2162250764       -4.5759230064
 C        -6.8407101547        4.8191874951       -4.6709406940
 C        -5.9067552248        5.0606175378       -3.4172989111
 O        -5.9842111144        6.1181749325       -2.8628011647
 C        -5.1007605107        3.9194173685       -2.8799256114
 C        -4.7906504232        4.0195723308       -1.3741624817
 C        -6.0276583778        3.9910120823       -0.5330018647
 O        -6.9674412701        3.3912591861       -1.0224040521
 C        -6.0757963120        4.6883433835        0.8968896624
 C        -6.3967824476        3.5115017820        1.9612662574
 O        -7.4894825742        3.0945054169        1.9454411410
 C        -5.4657807773        2.9985864308        3.0435270164
 C        -5.3546070506        1.3756521016        2.9701098335
 C        -5.2352870427        0.9493797531        1.5248674901
 O        -4.7844388494        1.7152013714        0.6674964228
 C        -5.7550028756       -0.4498748546        1.0649093072
 C        -7.3551944781       -0.4797383830        1.1358063646
 O        -7.9191673168       -0.1575153703        2.2098942668
 C        -8.1507184615       -1.1981653756       -0.0359324660
 C        -9.6861332661       -1.0168114432        0.2545586212
 C       -10.1300408515        0.4538740401       -0.0443716267
 O        -9.3040960365        1.3009576942       -0.3839568742
 C       -11.5311247293        0.9291486467        0.4613260750
 C       -11.3861235711        1.7351576281        1.8241702533
 O       -10.6875283826        2.7411741605        1.8212636014
 C       -12.2638109388        1.4101682135        3.0881049270
 C       -12.0027774301        2.0029399805       -0.5734276222
 C       -12.5650168684       -0.1610006347        0.5285985799
 C        -5.0716907672       -0.8005648384       -0.3263799238
 C        -5.3362920111       -1.5867241919        2.0763824553
 C        -4.7348778129        5.3598086345        1.2642256668
 C        -7.1034701870        5.7509852269        0.8979336084
 C        -6.3416063747        3.7787285504       -5.7178927997
 C        -7.0865599218        6.2238051067       -5.3797818598
 C       -13.4776201188        5.3560994775       -1.9924344906
 C       -12.3982571474        7.4777560016       -2.8369727608
 C       -15.2506102973        8.4139047153        1.8689787134
 C       -16.7117792450        6.8729830254        3.3749414788
 H       -18.2758429408        5.6407715111        1.6806958297
 H       -16.9292354652        4.4357946002        1.4535057517
 H       -17.8438592637        5.0615302670        0.0406184354
 H       -12.5906699880        5.9632948778        3.1684131482
 H       -13.0781068001        7.5185534013        2.3837834186
 H       -13.2557833429        5.1425602568        0.5614144052
 H       -11.6026042822        5.4175193934        1.0165104927
 H       -10.8978449205        5.5626666657       -4.1989146609
 H       -10.7568699982        3.8553054172       -3.4334724406
 H        -8.6170586982        4.9665994864       -2.1953436646
 H        -8.8183430486        6.1828228277       -3.4322901649
 H        -4.2155015870        4.0695637742       -3.4149133923
 H        -5.5277365533        2.9026668720       -3.0690991552
 H        -4.1791322633        4.9006638455       -1.2261775130
 H        -4.2284071216        3.1454664097       -1.0659096509
 H        -6.0506858651        3.2174858968        3.9525987663
 H        -4.4967007702        3.4559796226        3.0734062511
 H        -6.2649529605        0.9032190254        3.4931000146
 H        -4.4963261216        1.0551839918        3.5524833208
 H        -7.9052988589       -2.2530017521       -0.0027778878
 H        -7.9390965509       -0.7302700863       -1.0366805644
 H       -10.0411734325       -1.2933334902        1.2660069277
 H       -10.2372725599       -1.7188220809       -0.3646542079
 H       -11.7591399496        0.5493606766        3.5834824464
 H       -13.1820624334        0.9536551059        2.7596679553
 H       -12.4111145085        2.2227678591        3.7934511074
 H       -11.2323738298        2.6746442453       -0.7536178575
 H       -12.8904284398        2.6327257358       -0.3328157896
 H       -12.2713278137        1.5357599449       -1.5550609780
 H       -13.6137284033        0.1484357053        0.6375428394
 H       -12.4285444782       -0.9713352235        1.2889245665
 H       -12.4336137397       -0.8113291927       -0.3255231826
 H        -3.9882193131       -0.6697019614       -0.2332207423
 H        -5.4381631360       -0.1595281343       -1.1303040103
 H        -5.2022043614       -1.8733355990       -0.5858962039
 H        -5.5763345697       -2.5292589164        1.7188175758
 H        -5.7549970229       -1.5408460460        3.0704194704
 H        -4.2431386014       -1.5332225100        2.2778171214
 H        -3.8693397355        4.7382224816        1.2922866231
 H        -4.9063216052        5.9143474190        2.1926247627
 H        -4.4645277627        6.0328637120        0.5202708358
 H        -7.0409706929        6.3192613619        1.8519120181
 H        -8.1835331197        5.5122556006        0.8031558762
 H        -6.9105835877        6.5043100752        0.1561475769
 H        -5.3807489866        4.0970643858       -6.1555421717
 H        -7.0078597666        3.7038006265       -6.5411141933
 H        -6.1456942117        2.7802572855       -5.2718384561
 H        -7.8439866198        6.1902544126       -6.1229590138
 H        -6.1439062049        6.6022787320       -5.6583196827
 H        -7.4183075578        6.9180595066       -4.6650966701
 H       -13.4780312398        5.1142910698       -3.0155396118
 H       -14.3583105587        5.8767044871       -1.6630477113
 H       -13.3255287250        4.4028780177       -1.4955108782
 H       -11.8922507353        7.5138545326       -3.7361720262
 H       -12.1281135021        8.4079198843       -2.3199966819
 H       -13.5045064752        7.5502893616       -3.0657451275
 H       -14.8374969001        8.9134074258        2.7862747051
 H       -15.9351060445        9.1626151846        1.4705016883
 H       -14.3929289338        8.4522754618        1.1382838710
 H       -17.0295862102        5.8689473607        3.6395144692
 H       -17.5674095309        7.4735075437        3.2559298959
 H       -16.1913373626        7.3419897689        4.1803247966
 Na       -9.0230755232        3.3554157393       -0.0086346225
