117

 C       -17.5711769943        5.3401278410        0.9148534470
 C       -16.4259739831        6.3693796420        0.8406929579
 O       -16.0038053486        6.6963491070       -0.2671629565
 C       -15.7430206287        7.0338233654        2.1195392524
 C       -14.5423617953        6.0873748386        2.4091772583
 O       -14.7702013716        4.9948302758        2.8257807576
 C       -13.0786032427        6.4743045081        2.2047598533
 C       -12.4120865028        5.7633942820        0.9723205660
 C       -12.4479191913        6.6712963669       -0.3429470837
 O       -12.3034900886        7.8624599456       -0.1591881924
 C       -12.5018584185        6.1580084545       -1.8062146263
 C       -11.1168996772        5.3294614494       -1.9349549738
 O       -10.6949818337        4.9617899042       -0.8881313169
 C       -10.4671923851        5.0323018249       -3.3584452107
 C        -8.9604390123        5.3923425171       -3.4401875560
 C        -8.2447275088        4.3225188998       -4.2499657848
 O        -8.7140765653        3.2628814730       -4.5207747316
 C        -6.7606111573        4.6516009789       -4.7323665763
 C        -5.8090185280        4.7688293758       -3.4622900144
 O        -5.7373536100        5.8424944236       -2.9162381430
 C        -5.0614042158        3.5427122203       -2.9569736147
 C        -4.6096141013        3.9057292312       -1.5474795373
 C        -5.9111040257        4.0668231508       -0.7419797295
 O        -6.9573550670        3.5828206890       -1.1639489514
 C        -5.8321961456        4.7178431901        0.7079666613
 C        -6.3222153939        3.5974370852        1.6768326455
 O        -7.3934769063        3.0756353027        1.6220199160
 C        -5.3705719241        3.0795910688        2.9176425960
 C        -5.5963028567        1.5368797537        2.9064230792
 C        -5.2138541265        0.9433301755        1.6132208431
 O        -4.4273836318        1.5148593009        0.8236037948
 C        -5.8038112150       -0.4741258465        1.2870322239
 C        -7.4006305856       -0.4343817782        1.3430944125
 O        -8.0663280698       -0.1200086385        2.3662380138
 C        -8.2446519721       -0.9608226297        0.1115505496
 C        -9.7110561853       -0.8208905522        0.2861450525
 C       -10.3231371027        0.5586333175        0.0031935434
 O        -9.5359964300        1.3318764885       -0.5555593212
 C       -11.6758187928        1.0388303338        0.5246147157
 C       -11.4956736678        2.0029943970        1.8884890773
 O       -10.7891952213        2.9974628300        1.8405169458
 C       -12.2075085703        1.6635006140        3.1108211884
 C       -12.3205022231        1.8638762989       -0.5981242929
 C       -12.5773945974       -0.1685935601        0.9065786665
 C        -5.3164174412       -0.9268375135       -0.1311729347
 C        -5.3026364511       -1.4044600842        2.4400969858
 C        -4.5508102477        5.3306168675        1.2703197781
 C        -6.9077790941        5.8418298786        0.7988779282
 C        -6.1860960713        3.5421276021       -5.7194828497
 C        -6.7876629672        6.0247485320       -5.4837342823
 C       -13.7846414103        5.2811051869       -1.9680984117
 C       -12.5244048578        7.4115653475       -2.7427651299
 C       -15.1366170066        8.4084019913        1.6807475264
 C       -16.5925245455        7.0288141823        3.3568514207
 H       -18.0950069351        5.3309839315        1.8582226455
 H       -17.0741708500        4.3708686010        0.8771603070
 H       -18.1863230134        5.3761045860        0.0515797891
 H       -12.5059514924        6.0697514660        3.0398966271
 H       -12.8475196315        7.5031811778        2.0207074852
 H       -12.7868456430        4.7733614337        0.7948252989
 H       -11.4400533349        5.5894380684        1.2850884407
 H       -10.9897842988        5.6139934377       -4.1079642926
 H       -10.6577953541        4.0641409152       -3.5640587424
 H        -8.6320421114        5.3325625225       -2.4342178171
 H        -8.7305567018        6.4696594661       -3.6523774988
 H        -4.1769216839        3.2041300526       -3.5538120851
 H        -5.8523543262        2.7338300219       -2.9249803756
 H        -4.0143491002        4.8840818130       -1.6846735515
 H        -3.9473299265        3.1160124215       -1.1750201032
 H        -5.7183127176        3.5762836876        3.8785561552
 H        -4.2763606480        3.3084209214        2.8952553680
 H        -6.6835098384        1.3794355777        3.0605175706
 H        -5.1662350920        0.9888662154        3.7404564231
 H        -7.9834153307       -2.0055412285       -0.0044644150
 H        -7.9493453501       -0.3885536737       -0.7034825509
 H       -10.0985128403       -1.1803279407        1.2681301274
 H       -10.2003153970       -1.4893201131       -0.4370450739
 H       -12.0172848289        0.6053036080        3.3698838842
 H       -13.2517720281        1.8649431360        3.0925840649
 H       -11.7427422473        2.3038272150        3.8968721536
 H       -11.9061757983        2.7902245800       -0.6562242030
 H       -13.4135832785        2.0545526897       -0.4801713008
 H       -12.3178121205        1.3082569865       -1.5771395212
 H       -13.4117891895        0.2097597269        1.4766917004
 H       -12.2691840081       -0.8435051280        1.6562007027
 H       -12.8257470525       -0.8141374404        0.1201277191
 H        -4.2357902325       -0.9280893055       -0.1305606645
 H        -5.6278063216       -0.2076806960       -0.9209076248
 H        -5.7206925739       -1.8812707869       -0.3956648208
 H        -5.5538898433       -2.4277813778        2.2894267827
 H        -5.5508093527       -1.0846887413        3.4385108142
 H        -4.1352609273       -1.3926617112        2.5140403515
 H        -3.7402645848        4.5143816085        1.3775955524
 H        -4.7711362549        5.5839550642        2.3462816911
 H        -4.0672104798        6.0695710763        0.6982434829
 H        -6.9525108355        6.2016703959        1.8035545950
 H        -7.9530929712        5.5977372016        0.5606729232
 H        -6.7387576654        6.6666811575        0.1280257097
 H        -5.0914720907        3.5976454133       -5.8187271622
 H        -6.5398089935        3.6677193837       -6.6671734901
 H        -6.4165138568        2.5112130029       -5.3426618722
 H        -7.8047509406        6.0121278071       -5.9913594290
 H        -5.9662946100        6.1371478913       -6.2704242105
 H        -6.7247187147        6.8872826646       -4.8089087007
 H       -13.9701500906        4.9994559956       -3.0211552186
 H       -14.5789697518        5.8598161429       -1.5090273161
 H       -13.5218238321        4.3546842946       -1.3690759991
 H       -13.0426003711        7.0139491100       -3.5789063093
 H       -11.6034750760        7.7579571685       -3.1893457670
 H       -13.1169531877        8.2775955856       -2.4469230889
 H       -14.3934298722        8.8100106700        2.3118828147
 H       -15.8216338611        9.2371967499        1.6033771433
 H       -14.7354970325        8.4360618906        0.6829189596
 H       -16.8037236878        6.0062193377        3.7549856222
 H       -17.5760936991        7.4849329152        3.1180317184
 H       -16.1244079852        7.6352096373        4.1596638355
 Na       -9.1809936076        3.4569943916        0.1646675871
