117

 C       -17.5429041991        5.3936243873        1.0287318849
 C       -16.4085747881        6.4085889676        0.7968672385
 O       -15.9994554815        6.6641437528       -0.3282416478
 C       -15.7343372736        7.0303423730        2.0278174762
 C       -14.4820598616        6.0817495005        2.4465690295
 O       -14.7309212320        5.0096660628        2.9530139379
 C       -13.0381344228        6.4946230422        2.2576494833
 C       -12.3520599021        5.7963205611        1.0556321161
 C       -12.4943223905        6.6480656247       -0.2241697048
 O       -12.4375673392        7.8383202281       -0.0605371382
 C       -12.4911305538        6.0468623480       -1.8344524528
 C       -11.1698538971        5.3249215427       -2.0156441934
 O       -10.5657220432        4.8383458918       -1.0629022194
 C       -10.4664013517        5.0782134678       -3.3716595942
 C        -8.9547554787        5.3927694929       -3.3737964884
 C        -8.1775626674        4.3588489926       -4.2412870290
 O        -8.6833810873        3.2886979468       -4.5094936745
 C        -6.7020552907        4.6216534193       -4.8101768292
 C        -5.7723192044        4.7560595252       -3.5439220364
 O        -5.7615059068        5.7871407985       -2.9365167801
 C        -5.0579224383        3.5267006949       -3.0418324524
 C        -4.6273580490        3.7521399226       -1.5378563210
 C        -5.9164952774        4.0790371862       -0.6881082830
 O        -7.0185805399        3.7509459109       -1.1080648828
 C        -5.7939446787        4.7172186052        0.7757125578
 C        -6.3155957021        3.6264940300        1.7333592508
 O        -7.3982822495        3.1680725292        1.5606977481
 C        -5.4268885502        3.0738805870        2.7414041000
 C        -5.7566504630        1.5554541254        2.9353375334
 C        -5.3305511868        0.8962856101        1.6024922817
 O        -4.4952116179        1.3820645472        0.8845516672
 C        -5.9042391226       -0.4840728677        1.3044598289
 C        -7.4634729751       -0.4045175493        1.4428040688
 O        -7.9645268990       -0.0618094355        2.4987620452
 C        -8.2278100776       -0.8746474044        0.1797232887
 C        -9.6859500144       -0.7333314703        0.4009113061
 C       -10.1978887856        0.6805393993        0.1135814893
 O        -9.6461084137        1.4330899366       -0.6600735197
 C       -11.6971005354        1.0379020736        0.6454864704
 C       -11.4738885178        1.9845311231        1.8465988027
 O       -10.7600584765        2.9648338208        1.6851417927
 C       -12.1849687980        1.7319222785        3.1353134574
 C       -12.3494483827        1.7054441717       -0.6010897807
 C       -12.5661957457       -0.1743085928        1.0506275927
 C        -5.3430986659       -1.0360411951        0.0041714151
 C        -5.4030115003       -1.4145503720        2.3707187675
 C        -4.4147491571        5.3282405466        1.0486726354
 C        -6.8392583626        5.9315721933        0.7891961607
 C        -6.2458192265        3.4069028398       -5.6370890769
 C        -6.6495665497        5.9782729846       -5.5835034121
 C       -13.7348762583        5.1935868495       -2.1188141552
 C       -12.5384090476        7.2796717686       -2.8668947875
 C       -15.2104983000        8.4421924295        1.7400666412
 C       -16.6530108746        7.1347184211        3.2840168356
 H       -18.0145829289        5.5232351343        1.9517571020
 H       -17.0973395616        4.3703737933        1.0944969182
 H       -18.1907747521        5.3874857309        0.2273808665
 H       -12.4426912344        6.2393387031        3.1064724657
 H       -13.0182856406        7.5435522764        2.0054725505
 H       -12.8411474102        4.8438747094        0.9124970979
 H       -11.3667050256        5.5383643328        1.2893804569
 H       -10.9277265687        5.5342620158       -4.2346052198
 H       -10.6272039376        3.9595240558       -3.5062920761
 H        -8.6339283208        5.4745582795       -2.3125320741
 H        -8.7612041079        6.3799768305       -3.7141353815
 H        -4.1557529209        3.4454128036       -3.6119866360
 H        -5.6920630372        2.5653617997       -3.2001103410
 H        -3.8773816113        4.5497491176       -1.5838526773
 H        -4.1285473930        2.7950619138       -1.2210587756
 H        -5.5595612473        3.7630297347        3.6380788977
 H        -4.3649687797        3.2124849252        2.5233600737
 H        -6.8397521562        1.4380819319        3.2858556445
 H        -5.1946373387        1.1069962801        3.7532772299
 H        -7.9060990023       -1.8443920737        0.0585412092
 H        -7.8596348114       -0.2410903162       -0.6381899520
 H       -10.0421339939       -1.0770915777        1.3811004503
 H       -10.2993669375       -1.3028595670       -0.3178678168
 H       -12.2186251041        0.6577394223        3.4035462394
 H       -13.1859707694        2.2070330922        3.1794227812
 H       -11.6091424209        2.2236960654        3.8920551694
 H       -11.7948264706        2.6579700029       -0.8482862468
 H       -13.3785123232        2.0730570118       -0.4065686504
 H       -12.4999037791        1.0377093822       -1.4504885207
 H       -13.4441030572        0.0959252687        1.4912187264
 H       -12.2738350237       -0.8292524439        1.8655884745
 H       -12.7043051170       -0.7832726380        0.2050617986
 H        -4.2884545151       -1.2981853998        0.2106032696
 H        -5.3201789499       -0.3416692226       -0.8223326758
 H        -5.9623055623       -1.9347942305       -0.3067317968
 H        -5.6460129731       -2.4272753019        2.1235064416
 H        -5.7140417355       -1.1354038355        3.3918893444
 H        -4.3353252170       -1.4073653241        2.4538699463
 H        -3.7306661933        4.5360321639        1.1184275227
 H        -4.3557832922        5.7793403003        2.0607579324
 H        -4.0128252676        5.9709402762        0.2410301574
 H        -6.9097663250        6.3366417620        1.8241753463
 H        -7.8773337223        5.7129797374        0.5380563434
 H        -6.6281305426        6.7065104824        0.0951338521
 H        -5.2080760862        3.5020586007       -5.9372436866
 H        -6.8420460315        3.3968005956       -6.5967376868
 H        -6.3805252061        2.4729327471       -5.1251560235
 H        -7.5032443860        6.0437317125       -6.2775845615
 H        -5.7357673485        6.1047711003       -6.1739077110
 H        -6.6891628918        6.7908525169       -4.8187925593
 H       -13.6403046276        4.9346386146       -3.1553313866
 H       -14.6197696811        5.8440728518       -1.9703397386
 H       -13.6872276138        4.2817983915       -1.5076215443
 H       -13.2099463987        7.1535530225       -3.6461754799
 H       -11.5900118948        7.4512064871       -3.3223629445
 H       -12.7705876569        8.2461209306       -2.3831687203
 H       -14.6790899055        8.9266381325        2.5885954101
 H       -15.9327645892        9.1623369744        1.4552345378
 H       -14.5381910102        8.5707713060        0.8595066860
 H       -16.9322699578        6.1598753463        3.7467590379
 H       -17.5638508459        7.6177502318        2.9783581557
 H       -16.1917489871        7.7282039466        4.0768197319
 Na       -9.1883805671        3.5320684773        0.1628712469
