117

 C       -17.4786512771        5.4385299004        1.0923261700
 C       -16.3359171345        6.4155806683        0.7886495179
 O       -16.0196343301        6.6181706144       -0.3523374715
 C       -15.6116847449        7.0908131441        2.0704240383
 C       -14.4836630208        6.0959221652        2.5305422367
 O       -14.7351586089        4.9819847290        3.0355357619
 C       -12.9873753477        6.4483234105        2.2354949514
 C       -12.4311756586        5.7646754197        0.9416092824
 C       -12.4793548668        6.7025621205       -0.2905041739
 O       -12.5988528843        7.8937856249       -0.1371395336
 C       -12.3595395930        6.0516802560       -1.8063341059
 C       -11.1096233586        5.2427639855       -2.0694430553
 O       -10.5184976095        4.7514462881       -1.0693562361
 C       -10.4535580649        5.0886567559       -3.4489039191
 C        -8.9233199200        5.3515134949       -3.4376098826
 C        -8.1469905109        4.3649810765       -4.3001989018
 O        -8.7028210449        3.2593241881       -4.4823725857
 C        -6.6982379641        4.5882812387       -4.8404602563
 C        -5.8047732401        4.7606180661       -3.5297884320
 O        -5.7712110252        5.8374937986       -2.9104188192
 C        -4.9933345396        3.5146911565       -3.0036306911
 C        -4.7488464757        3.6260314189       -1.4283752488
 C        -5.9359222881        4.1054588022       -0.6923501610
 O        -7.0872410784        3.9036511382       -1.0666146192
 C        -5.7444829119        4.7850898623        0.6667058705
 C        -6.3174637242        3.7054038055        1.7341891441
 O        -7.4846543525        3.2767506008        1.5731600543
 C        -5.3680843748        3.1166791708        2.7685934699
 C        -5.6774453001        1.6380918167        2.9613467361
 C        -5.2888264080        0.8609072859        1.7045058493
 O        -4.5818281844        1.3657442832        0.8808976741
 C        -5.8884178792       -0.6470590488        1.4288449805
 C        -7.4558029150       -0.4977105476        1.4747974338
 O        -7.9557004202       -0.0995290504        2.4540287527
 C        -8.2711984164       -0.7960236059        0.2329033569
 C        -9.7798174323       -0.7243844125        0.4853002944
 C       -10.3006406623        0.6330870965        0.0653612740
 O        -9.7072553162        1.4470721210       -0.6011429117
 C       -11.7075908480        1.0103372167        0.6373129254
 C       -11.4635582292        2.0594674023        1.8028989140
 O       -10.7540220612        3.0201543568        1.6287259951
 C       -12.1678938360        1.8502623811        3.2013859053
 C       -12.4529889658        1.6526021361       -0.5011615203
 C       -12.4800372370       -0.2298637052        1.0892141195
 C        -5.3955408462       -1.0948794095        0.0132009557
 C        -5.4813876534       -1.5947646200        2.5674627205
 C        -4.3056223640        5.2911096648        0.8112041799
 C        -6.7239613234        6.0382597685        0.7390321423
 C        -6.3692703647        3.3747096541       -5.6652528573
 C        -6.5615992942        5.8937341794       -5.6707911819
 C       -13.6282961724        5.0544662695       -2.1166958333
 C       -12.5357962756        7.2299507229       -2.7604701610
 C       -15.2968667325        8.5157543158        1.7199959584
 C       -16.6869293403        7.2133658549        3.2259596256
 H       -18.1060771370        5.8122018160        1.8939103815
 H       -17.1594238201        4.4740063196        1.4010969912
 H       -18.0747361603        5.3604607512        0.1382117740
 H       -12.3630012592        6.0518642096        3.0286968306
 H       -12.8686640209        7.5255318372        2.0621090894
 H       -12.9336370668        4.7969412006        0.8530326025
 H       -11.3278523874        5.4687011470        1.0806037713
 H       -10.9470815576        5.7403657124       -4.2051129912
 H       -10.6017092995        3.9684805874       -3.8669157473
 H        -8.5631051588        5.3210257214       -2.3681262581
 H        -8.6675294486        6.3572457314       -3.6879612999
 H        -4.0407836953        3.5027332472       -3.5440952565
 H        -5.5004235936        2.6008479120       -3.2049190438
 H        -3.9167324311        4.2467670013       -1.2761132866
 H        -4.4888706247        2.6087481015       -1.0972443742
 H        -5.4459619814        3.6783556488        3.6833982293
 H        -4.3250395794        3.3016785811        2.4981938965
 H        -6.7204345698        1.5416699195        3.2755500697
 H        -5.1371994173        1.2420848389        3.8584230321
 H        -7.8999695287       -1.8191324276        0.0687767968
 H        -7.8503657257       -0.1528305553       -0.5871060554
 H        -9.9936351261       -0.7637791012        1.5399061250
 H       -10.4001213790       -1.5138781916        0.0491414033
 H       -12.3177864678        0.8274760545        3.5013020846
 H       -13.1357272826        2.4339583082        3.1816520059
 H       -11.6015326616        2.3241507869        3.9924961505
 H       -11.8750912174        2.5598442635       -0.9303584097
 H       -13.3685153915        2.1181529400       -0.1275395494
 H       -12.7819104297        0.9725992092       -1.2601606062
 H       -13.4966987098       -0.0861573784        1.4306049227
 H       -12.1383744660       -0.7022351102        1.9953898483
 H       -12.4834692929       -0.9582085388        0.2609387862
 H        -4.2989042721       -1.2702895879        0.0717570906
 H        -5.5307511596       -0.3228699194       -0.7504807101
 H        -5.9755333084       -1.9853854488       -0.3267377792
 H        -5.7086410502       -2.6461198561        2.3027657359
 H        -5.9534343003       -1.2892318864        3.4887736399
 H        -4.4782428752       -1.6170219400        2.7730078456
 H        -3.6312509112        4.4700501230        0.7551882270
 H        -4.0911011112        5.7102597566        1.7383131542
 H        -4.0525665544        6.0411760427        0.0105045750
 H        -6.8214911780        6.4274615407        1.7610047473
 H        -7.7375164974        5.7363222814        0.5196105557
 H        -6.6172434062        6.8493227102        0.0027945129
 H        -5.4160453919        3.4431191673       -6.1862776502
 H        -7.1799695015        3.3240343668       -6.4733580471
 H        -6.4081828395        2.4685383177       -5.0996924185
 H        -7.0924417218        5.8539603331       -6.5855291194
 H        -5.5522257150        5.9150414052       -6.0008973646
 H        -6.7405097785        6.7954028132       -5.0785703773
 H       -13.3018146340        4.6986508115       -3.0877137941
 H       -14.5264341409        5.6499614840       -2.2635441189
 H       -13.6680244787        4.2698619515       -1.4300699575
 H       -13.2725948407        7.2216942273       -3.6110606068
 H       -11.5668430391        7.4854891011       -3.1665433159
 H       -12.6576131258        8.1047189409       -2.1944876994
 H       -15.0233778924        9.2264584743        2.5343512786
 H       -16.1594249500        8.9837746329        1.2116276273
 H       -14.5522148643        8.7264678251        0.9457042314
 H       -16.9551808766        6.2465715659        3.5777459485
 H       -17.5720746751        7.6773462236        2.8248568210
 H       -16.3719683436        7.7152284432        4.1215105476
 Na       -9.1133938450        3.6286037658        0.0502481102
