117

 C       -13.3735724009        6.7078210342       -6.0828372678
 C       -11.8983914639        7.1868834570       -6.0559063666
 O       -11.0218222146        6.5352877320       -5.4195734432
 C       -11.3675382537        8.5101378986       -6.7227249692
 C       -10.7954571220        9.4409367524       -5.6152501093
 O       -11.5620472027       10.2027710133       -5.0753831810
 C        -9.3398782778        9.3304602024       -5.0539713814
 C        -9.2829233647        9.0231264594       -3.5947777643
 C        -7.8908107873        8.8271807466       -3.0621551330
 O        -6.8712690126        9.2701249344       -3.6017267627
 C        -7.7054131928        8.1460365156       -1.7076356667
 C        -8.7957762388        7.0235840205       -1.5659398482
 O        -9.7216754548        7.0607781518       -0.8079928506
 C        -8.5591050096        5.6517128970       -2.3537229139
 C        -9.9624643238        5.0869274883       -2.6298046465
 C       -10.1960471007        3.7813708266       -1.8029686451
 O        -9.3710694257        3.2916060716       -1.0912737513
 C       -11.7340269175        3.1370511513       -1.8891757211
 C       -12.2147013004        2.7125464719       -0.4388322415
 O       -12.0322960926        1.5927377772       -0.0330377441
 C       -13.1838848813        3.5434677179        0.3335887897
 C       -12.8437116269        3.9323618025        1.8092386760
 C       -11.3225213560        4.2107571777        2.0887067790
 O       -10.5370480950        4.1897295951        1.1239390356
 C       -10.8307273483        4.2480973383        3.6114109618
 C       -10.7286756018        2.7562291799        4.0324172000
 O       -10.8013628426        1.8056280569        3.2635678254
 C       -10.3275545707        2.5292685469        5.5071011700
 C        -9.7049729558        1.1059978846        5.8566812946
 C       -10.4279387564       -0.2488127635        5.7587655830
 O       -11.6079959420       -0.2466072786        6.1488599384
 C        -9.7413349219       -1.6593085900        5.4969299836
 C        -8.7187630324       -1.4854954317        4.2429436626
 O        -7.8153603132       -0.7042526406        4.1229800136
 C        -9.0997292141       -2.3912605668        2.9392486499
 C        -8.0619121049       -2.3584278708        1.7304293811
 C        -8.1273234791       -1.0364280873        1.0301052281
 O        -9.1652326772       -0.4349146662        0.8171085561
 C        -6.7507361817       -0.3592596870        0.5350772565
 C        -6.6799775219        1.0592138003        1.1912310043
 O        -7.5650358841        1.8004987889        1.4323554750
 C        -5.2794972308        1.6402797178        1.3501980710
 C        -5.4487138431       -1.2447369831        0.8780503629
 C        -6.7760987011       -0.1646650942       -1.0183472102
 C        -8.7737334749       -1.9691683283        6.6695788063
 C       -10.8437108182       -2.6856610826        5.2437644972
 C        -9.4396532069        4.7547057937        3.5738175278
 C       -11.8113883122        5.0427437381        4.5478183370
 C       -12.6710115558        4.0641996604       -2.6143311926
 C       -11.4066825090        1.8192410168       -2.6274627477
 C        -6.2534526242        7.5353506145       -1.3915988893
 C        -8.0066001389        9.2632176386       -0.6758913582
 C       -10.2685916401        8.1788551446       -7.6553478675
 C       -12.4458124498        9.3170620829       -7.4679101211
 H       -14.0465621363        7.3365952599       -5.5591722294
 H       -13.5457663727        5.6597927620       -5.7443828787
 H       -13.7653607850        6.6546786042       -7.0539057448
 H        -8.7696626858       10.3053983656       -5.2297242860
 H        -8.7691483004        8.6836034097       -5.6678398196
 H       -10.0077003332        8.1160025197       -3.3695672078
 H        -9.7141491267        9.8891736900       -3.1059130312
 H        -8.1209259327        4.8474782404       -1.6656193848
 H        -8.0168394302        5.7980944779       -3.2877045390
 H       -10.0844365151        4.8294088852       -3.6803108241
 H       -10.7693197839        5.7873401144       -2.2564904035
 H       -14.1311412241        3.0345745535        0.5082601491
 H       -13.5121113447        4.4758374272       -0.2193274129
 H       -13.3091570901        3.1956799497        2.4956743552
 H       -13.4748657822        4.7295580653        2.1153403217
 H       -11.2161822301        2.8283117389        6.1234491328
 H        -9.6352381199        3.3318845609        5.8957934361
 H        -9.5173596786        1.0803347935        6.9529227730
 H        -8.7853246274        1.0551343749        5.2038907023
 H       -10.0289739560       -2.0433067901        2.5573529609
 H        -9.2372455366       -3.4119938538        3.2796306908
 H        -8.4766402549       -3.1145891350        1.0139249157
 H        -7.0426962303       -2.6395046896        2.1582997538
 H        -4.8475001225        1.3574747625        2.3328081746
 H        -5.3035048673        2.6764638051        1.3059190483
 H        -4.6423053670        1.2954504460        0.4850491704
 H        -5.5629086849       -2.2444181476        0.7192664426
 H        -5.0549080383       -1.0052436854        1.9117261970
 H        -4.5559249373       -1.0822915828        0.2485084539
 H        -6.8029452420       -1.0689210126       -1.5916926059
 H        -5.8498029869        0.2570599967       -1.2284101136
 H        -7.5962529231        0.5127923703       -1.2641920001
 H        -9.2400913896       -1.7139522209        7.5917200233
 H        -7.8399780968       -1.3756155695        6.7019572826
 H        -8.4383584604       -2.9333529905        6.6150733682
 H       -11.5540586304       -2.8092526041        6.0536873142
 H       -10.4000463117       -3.6716506981        4.9714786914
 H       -11.4235601585       -2.3636760358        4.3569413111
 H        -9.3122501561        5.6899793024        3.0654068898
 H        -8.7752702957        4.0589818298        3.0601485683
 H        -9.0919042614        5.0349857416        4.6010692412
 H       -12.5327013681        5.5193558982        3.8311877823
 H       -11.3323356771        5.6939960454        5.2257325734
 H       -12.3476836601        4.4439712968        5.2244630760
 H       -13.5830287743        3.4202935747       -2.6671710906
 H       -12.4818371001        4.4005014557       -3.5662866239
 H       -12.8997021364        4.9417186178       -1.9187373432
 H       -12.2228029727        1.7127763530       -3.2946141389
 H       -11.2225227891        1.0327889666       -1.9493244009
 H       -10.4313341452        1.9472866172       -3.1045518395
 H        -5.5324707768        8.2438889084       -1.7758566737
 H        -6.0634225133        6.5965943365       -1.8832154533
 H        -6.1675610763        7.4497278669       -0.3164572906
 H        -7.3605899996       10.0761257967       -1.0696835147
 H        -7.7430146744        9.0614745848        0.3811798596
 H        -9.0583275757        9.5929270971       -0.7428781288
 H        -9.5789053786        7.5336645256       -7.0989593567
 H        -9.9501034376        9.0942072825       -8.0917587103
 H       -10.8318618064        7.5525952310       -8.4200467672
 H       -13.4412441783        9.5748603360       -6.9875084444
 H       -12.7300888239        8.8055005292       -8.3882085133
 H       -11.9874150847       10.2401613838       -7.6697322520
 Na       -9.8354292325        1.9308402476        1.0286241118
