117

 C       -17.4143269706        5.3804272637        1.0559664358
 C       -16.3146766246        6.4032961814        0.8455271624
 O       -15.8132706054        6.5457252135       -0.2592990656
 C       -15.6389468565        7.1399242623        2.0772142268
 C       -14.4823667863        6.1698870945        2.4536246678
 O       -14.8109397264        5.1913125962        3.0705910630
 C       -13.0672282656        6.4024348760        2.0555695099
 C       -12.6049019001        5.7344249569        0.7292043820
 C       -12.5795403481        6.7216256474       -0.3731434816
 O       -12.8073677161        7.9012828063       -0.2249012312
 C       -12.3583703810        6.1647453414       -1.8854427480
 C       -11.0492284667        5.4012174239       -2.0407807290
 O       -10.6109352411        4.8197365178       -1.0796783882
 C       -10.3896749081        5.2258867932       -3.3818414014
 C        -8.8494963645        5.4036059233       -3.5517192991
 C        -8.2065190087        4.2586393297       -4.3332313782
 O        -8.7835736350        3.2334845966       -4.5309853307
 C        -6.7008386073        4.4692449915       -4.8990531301
 C        -5.8397800492        4.6517606253       -3.6001509976
 O        -5.8270339132        5.6931653082       -3.0047807350
 C        -5.1483359704        3.4002090932       -3.0681479994
 C        -4.8731590583        3.4686641410       -1.5734695599
 C        -6.0011032953        4.1482679434       -0.7958356545
 O        -7.1062710562        4.0751709635       -1.2952390163
 C        -5.7767601730        4.8496795021        0.5929064157
 C        -6.2602626806        3.8376163826        1.7658101743
 O        -7.4077921434        3.6261734877        1.8362613382
 C        -5.2393983937        3.1772111493        2.8022219321
 C        -5.5053681967        1.6276266402        3.0181050073
 C        -5.3566730491        0.7857400777        1.7068364889
 O        -4.7072222189        1.2488229355        0.7672301688
 C        -5.9288738009       -0.6681720008        1.5699323183
 C        -7.4459895097       -0.4933131113        1.5503749150
 O        -8.0440414695       -0.2167320897        2.6002701556
 C        -8.2754508073       -0.8781313343        0.2953333042
 C        -9.7323327477       -0.8210357867        0.5280017530
 C       -10.3829688246        0.5995180951        0.1469098862
 O        -9.6917101999        1.3856817735       -0.4827110231
 C       -11.7245269051        1.0176766206        0.8064810651
 C       -11.5214808754        2.1514681562        1.8155377438
 O       -10.7723374635        3.0442744374        1.4622336709
 C       -12.2326725579        2.1036827257        3.1736361965
 C       -12.6998276639        1.7408811855       -0.2411756810
 C       -12.5492269108       -0.1393283585        1.2769016535
 C        -5.2379514913       -1.2768306626        0.3421213261
 C        -5.5682411773       -1.6288830209        2.7009435735
 C        -4.2204076983        5.2074494090        0.8555708459
 C        -6.5185310836        6.1507928647        0.7104475556
 C        -6.2718205552        3.2824981333       -5.7060654985
 C        -6.6013959809        5.8131388311       -5.6656768616
 C       -13.3927387895        4.9895255665       -2.0966230545
 C       -12.5251268949        7.2091826355       -2.9627521242
 C       -15.1608326019        8.4969373208        1.6002235876
 C       -16.6145561422        7.2321498142        3.3394051240
 H       -18.4613499266        5.7512439248        0.9752062477
 H       -17.3137841750        4.9895830978        2.1459097219
 H       -17.2836535886        4.5871874958        0.3493330652
 H       -12.4206001865        5.9848859401        2.8522332851
 H       -12.9159790596        7.4747394519        1.8885439239
 H       -13.4086362401        4.9692666335        0.5079127527
 H       -11.6990739354        5.1659925840        0.7580310650
 H       -10.8551461756        5.8336303187       -4.1402436245
 H       -10.5274385879        4.2591277319       -3.7102642969
 H        -8.2468672504        5.6265862428       -2.6877472455
 H        -8.6598898614        6.3450834652       -4.1384381723
 H        -4.2341362525        3.3489194940       -3.6417193295
 H        -5.6621360917        2.4106673910       -3.3166620285
 H        -3.9321728617        4.0534135488       -1.5164001124
 H        -4.6509062843        2.4644945682       -1.2479000711
 H        -5.0863590718        3.7332947615        3.7453685069
 H        -4.2332215569        3.2492017425        2.4129907118
 H        -6.4867539565        1.5002191859        3.4719197308
 H        -4.8771268154        1.2980241121        3.8015318727
 H        -7.9743443369       -1.8811920651       -0.0456714116
 H        -7.9303604594       -0.1557261559       -0.4445588528
 H       -10.0878940563       -1.0722340596        1.5457065124
 H       -10.1741719891       -1.5853400179       -0.1115534127
 H       -12.2031809506        1.0279680697        3.4379051522
 H       -13.2103690217        2.5164873069        3.1249871843
 H       -11.7465091445        2.6089043042        4.0071011809
 H       -12.2178164000        2.4873893365       -0.8235185350
 H       -13.6086006363        2.1622095656        0.1851230022
 H       -12.9911865917        0.9453246080       -0.9314464932
 H       -13.5600842200        0.1906525544        1.6064167812
 H       -12.2194464955       -0.6878427462        2.2141678072
 H       -12.7769083124       -0.8619620628        0.4627784648
 H        -4.2055629420       -1.0455515532        0.3733925978
 H        -5.6606994192       -0.8636390317       -0.5484277976
 H        -5.4357231510       -2.3226328072        0.2994989205
 H        -5.8794813017       -2.6249812695        2.4968836674
 H        -6.0095743168       -1.2857034417        3.6593722586
 H        -4.4492888671       -1.7378821572        2.8461916745
 H        -3.5089922996        4.3786571335        1.0209229510
 H        -4.0890537587        5.8797764478        1.7689305973
 H        -3.9061793770        5.9227344387        0.1282433770
 H        -6.3017065028        6.7199758051        1.6092312892
 H        -7.6147750415        6.0909679078        0.6591918869
 H        -6.3153732356        6.7323877968       -0.1533322144
 H        -5.2168951828        3.4372155054       -5.8991209107
 H        -6.8094465037        3.0729504504       -6.5981383497
 H        -6.3383029007        2.3710451688       -5.0943523459
 H        -6.9841921541        5.7302442920       -6.6779891072
 H        -5.5656369884        6.0113107250       -5.9378615430
 H        -6.9991057153        6.6111614136       -5.0757001463
 H       -13.4805728453        4.6412453028       -3.0998231864
 H       -14.3547819871        5.3731733335       -1.7787926600
 H       -12.9777730174        4.2588772198       -1.3651680686
 H       -12.5329873856        6.7920108233       -3.9373247454
 H       -11.7126459230        7.9729761627       -2.8418703407
 H       -13.4175819280        7.9305099780       -2.8887105128
 H       -14.5671748561        9.0893236865        2.2426070682
 H       -15.8007351546        9.1764207892        1.1232393498
 H       -14.4768951383        8.2986436149        0.7837209082
 H       -16.7556311609        6.2730400410        3.8511840758
 H       -17.5539799677        7.7142711688        3.1434315039
 H       -16.1083670822        7.7560065123        4.1398991605
 Na       -8.9464959891        3.5387054013       -0.0375385083
