117

 C       -17.3618127484        5.3585790821        1.0801618304
 C       -16.2107614052        6.3578041934        0.8382949741
 O       -15.7552653631        6.4628381067       -0.2759980673
 C       -15.6365083574        7.1641981364        2.0521409571
 C       -14.5018808897        6.1362612280        2.5335608741
 O       -14.7738686200        5.0856551536        3.1315993586
 C       -13.1123024401        6.4535398627        2.0478218422
 C       -12.7680783395        5.7749132962        0.6984953811
 C       -12.6742685922        6.7762751941       -0.5166530489
 O       -12.7393323816        7.9613957788       -0.3149418390
 C       -12.4404092736        6.1078900125       -1.9480300580
 C       -10.9280883953        5.4383190023       -2.0430374650
 O       -10.5033418024        4.9231018036       -0.9682899062
 C       -10.3359720530        5.2439574379       -3.4864785159
 C        -8.8189674795        5.4573705511       -3.6108943077
 C        -8.1912046204        4.2907316238       -4.4439459339
 O        -8.8485495697        3.2252394946       -4.5524508094
 C        -6.7348206411        4.4192278852       -4.9573333902
 C        -5.8806308327        4.5413377585       -3.6421653763
 O        -5.7857298230        5.6144273702       -3.0613084437
 C        -5.1932282262        3.2520165233       -3.0416299109
 C        -4.7339403306        3.5379888833       -1.6032717902
 C        -5.8781563137        4.1277727771       -0.7418754115
 O        -7.0704687941        4.1737321324       -1.1563469793
 C        -5.6864876310        4.7924410561        0.6486443775
 C        -6.2510859396        3.7992657379        1.8019420241
 O        -7.4543462782        3.6954162739        1.9455978340
 C        -5.2610395128        3.1017965870        2.5964653637
 C        -5.5464790206        1.6511521955        2.9195558558
 C        -5.3549185492        0.8305986824        1.6622992183
 O        -4.7870681836        1.2945314245        0.7474391451
 C        -5.8980443535       -0.6692455339        1.6226719285
 C        -7.5258947592       -0.5776644946        1.6782071721
 O        -8.0385505095       -0.2176551324        2.6807856444
 C        -8.3180395079       -0.8904665715        0.3324436054
 C        -9.8194613185       -0.8055360407        0.4271194948
 C       -10.3537405264        0.5881653948        0.2665872374
 O        -9.7378890480        1.3557354583       -0.4409079387
 C       -11.7749697916        0.9252641691        0.8295343337
 C       -11.4026765039        2.1437475516        1.8447185423
 O       -10.7796685096        3.1453949895        1.5462389434
 C       -12.2310589572        2.2342155099        3.1247219211
 C       -12.5919171609        1.6836822959       -0.2622310744
 C       -12.6587811542       -0.1387838120        1.5154113699
 C        -5.2000954282       -1.3987625499        0.3975172433
 C        -5.5385764929       -1.4364235973        2.9148223129
 C        -4.1288630343        5.1204444357        0.7857567569
 C        -6.5035762155        6.0529451500        0.6557209882
 C        -6.2202949594        3.2543527344       -5.7748994415
 C        -6.6784156620        5.7901058615       -5.7286918628
 C       -13.5084974879        5.0386654322       -2.2826275952
 C       -12.6372172711        7.2513196624       -3.0640585790
 C       -15.1954189175        8.5651650822        1.6433373564
 C       -16.5430095363        7.3720507823        3.2700093564
 H       -18.2285596440        5.6948570505        0.5541067747
 H       -17.6484364536        5.2638382084        2.1178874516
 H       -17.1379185091        4.3966495360        0.6121282399
 H       -12.4094297729        6.0553659724        2.7562547972
 H       -12.9411439919        7.5175357066        1.8468412531
 H       -13.4939531100        5.0254198626        0.5158388210
 H       -11.8717545317        5.2514910158        0.7721340591
 H       -10.8523072263        5.7731479994       -4.1781018837
 H       -10.4494839472        4.2237560447       -3.7413543915
 H        -8.2902146756        5.3706192327       -2.6219704658
 H        -8.5484168120        6.4251888816       -3.8843019496
 H        -4.4507702231        2.8728478491       -3.7588963708
 H        -5.9688337243        2.3870646752       -2.9997324039
 H        -3.8160531859        4.1250456422       -1.6671063964
 H        -4.4849500614        2.5413658541       -1.0790289174
 H        -5.1811680258        3.6623071632        3.5848061309
 H        -4.2406366420        3.2746260791        2.2389862464
 H        -6.5586072880        1.6120660767        3.4014667022
 H        -4.9293622323        1.3842767173        3.7487315717
 H        -8.0798337017       -1.8430654278        0.0768801983
 H        -7.8334196199       -0.2427268336       -0.3842394788
 H       -10.2462841184       -1.1390196132        1.3861368006
 H       -10.2818991220       -1.4783417943       -0.3280200494
 H       -12.2127537402        1.3752262220        3.7733326403
 H       -13.2396448122        2.5907500486        2.8083590585
 H       -11.8837144582        3.0453674791        3.7148969057
 H       -11.9082936101        2.5214697617       -0.7299346521
 H       -13.4293155257        2.1670258898        0.2089978139
 H       -12.9078016556        1.0832643519       -1.0819106955
 H       -13.5484159004        0.1656000815        2.0119165428
 H       -12.0529237438       -0.7110544319        2.2671196208
 H       -13.0576779730       -0.8372376693        0.7947075161
 H        -4.1250703646       -1.3264599091        0.4529053019
 H        -5.5694078764       -0.9806204085       -0.4770310967
 H        -5.5500366983       -2.4453662093        0.3855756784
 H        -6.0195664353       -2.4582518962        2.9421789286
 H        -5.9358165600       -0.8654330786        3.8194387723
 H        -4.5190769297       -1.6352963799        3.0292032514
 H        -3.4377991483        4.3253911373        0.7789423534
 H        -3.9280927136        5.6959915427        1.7205660407
 H        -3.9470491415        6.0115684159        0.0889291189
 H        -6.3550992759        6.7020529524        1.5439987386
 H        -7.5518533998        5.8552556363        0.6282817566
 H        -6.3651173218        6.6603036235       -0.2104938990
 H        -5.1574725668        3.2748193468       -5.7427429796
 H        -6.5868203925        3.3098866212       -6.8640306457
 H        -6.5701592508        2.3313369023       -5.4407082618
 H        -7.3441392209        5.8170969418       -6.5944980571
 H        -5.7431010599        5.9596512438       -6.2528350447
 H        -6.8946711308        6.5696860038       -4.9321078973
 H       -13.8011701127        5.0737225548       -3.3378488466
 H       -14.4112627313        5.4832857118       -1.7627869029
 H       -13.1809297466        4.0681666153       -1.9131918991
 H       -12.4214401178        6.9102442685       -4.0688443477
 H       -12.3040307235        8.2477589515       -2.8966020087
 H       -13.7081345816        7.4570530774       -3.0899717322
 H       -14.3569722107        8.9298476611        2.2354673870
 H       -15.9055014494        9.3154586422        1.6962301453
 H       -14.8285083460        8.7087334800        0.6499741314
 H       -16.6702486121        6.4256040283        3.8357797687
 H       -17.5076614510        7.8525501006        3.0864904925
 H       -16.0119689991        7.9537680482        4.0470011397
 Na       -8.9421160352        3.4468160308        0.0206165314
