117

 C       -17.4060546544        5.3686086999        1.1151240246
 C       -16.2327952579        6.3492153748        0.8459970547
 O       -15.6808453561        6.4163403845       -0.2339084908
 C       -15.6271345304        7.1596872137        2.0812931432
 C       -14.3931962477        6.2044078624        2.4482052920
 O       -14.6194745522        5.3235274764        3.2550908626
 C       -13.0693024971        6.4342882498        1.8331821718
 C       -12.8824342304        5.7463230487        0.4624583529
 C       -12.6643891576        6.7147589827       -0.6180600019
 O       -12.4625192703        7.8776286484       -0.3833678431
 C       -12.4697520228        6.2729166147       -2.2050343785
 C       -11.0161179593        5.6343868278       -2.2307575799
 O       -10.3812610087        5.4434156221       -1.1873572382
 C       -10.4452401916        5.1434317772       -3.5414441983
 C        -8.9067879880        5.1553376668       -3.4779869690
 C        -8.3114968836        4.2092921396       -4.5395755013
 O        -8.8855420688        3.1236289413       -4.7996908609
 C        -6.8135285637        4.4268997101       -5.0523959864
 C        -5.8750870058        4.4850918489       -3.7930454750
 O        -5.5154862002        5.5725435085       -3.3926885124
 C        -5.3509924056        3.2375546323       -3.1229108443
 C        -4.8214399473        3.5535155177       -1.6954515194
 C        -5.8945672368        4.0467649698       -0.6662106347
 O        -7.0552837320        3.6541177425       -0.8865040733
 C        -5.5213330436        4.8131485135        0.6040614117
 C        -6.1420889444        3.8574388724        1.6869674207
 O        -7.3148396354        3.5551658605        1.7631474589
 C        -5.2362361234        3.1549112378        2.6715296961
 C        -5.6574302408        1.7103556177        2.9211507171
 C        -5.5651696991        0.8244890165        1.6171533061
 O        -5.1740808541        1.1770913739        0.5660244389
 C        -6.0323118829       -0.7368044472        1.8372198443
 C        -7.6240914315       -0.6645168733        1.7998213324
 O        -8.2490619473       -0.1977264903        2.7057291077
 C        -8.3944197069       -1.0810820220        0.5126912157
 C        -9.8283778790       -0.8688515145        0.7303919290
 C       -10.1924112669        0.6004205904        0.3865364076
 O        -9.5053791348        1.3508234113       -0.2874081911
 C       -11.5781441747        1.0745516657        1.0521028829
 C       -11.3817408738        2.3380326467        2.0154576370
 O       -10.5856095232        3.2202933805        1.7754009177
 C       -12.3725987121        2.5082566414        3.1454554870
 C       -12.4632589489        1.5093453153       -0.1220973280
 C       -12.4173895077       -0.0339178315        1.7736413017
 C        -5.4083746902       -1.6513373426        0.7623833270
 C        -5.5895666790       -1.2798680069        3.2091752265
 C        -4.0515359503        5.1730869529        0.7515172479
 C        -6.3080115782        6.1903925927        0.6993866248
 C        -6.4867630322        3.1372496244       -5.9124407613
 C        -6.6506215397        5.7679750073       -5.7799578427
 C       -13.4172368277        5.0095115363       -2.4187400882
 C       -12.6502133566        7.3146317721       -3.2529308291
 C       -15.1578666977        8.5225469932        1.5563136163
 C       -16.5654796754        7.2719426085        3.2144891832
 H       -17.6485907725        4.8207924348        0.1883242794
 H       -18.2561518905        5.8573753555        1.6838421489
 H       -16.9963500754        4.5657622970        1.7555507041
 H       -12.2154766131        6.1000231495        2.4696522558
 H       -12.9181381002        7.5262454690        1.6793766972
 H       -13.8455325654        5.1325598752        0.2094455851
 H       -12.0426509973        5.0110816227        0.5173655825
 H       -10.8190282977        5.7552303916       -4.3760877482
 H       -10.8158666637        4.0780635207       -3.7393677393
 H        -8.6038854337        4.8069998281       -2.4615545529
 H        -8.4919657939        6.1971115278       -3.5372539221
 H        -4.5909486262        2.8491889832       -3.7195062358
 H        -6.0983666640        2.3959510407       -3.1521412343
 H        -3.9807993640        4.1979697446       -1.8617087338
 H        -4.4113124678        2.6424248936       -1.3196871909
 H        -5.2293256998        3.7246074024        3.5980560999
 H        -4.2159830523        3.1697006232        2.4079669615
 H        -6.7192493886        1.7583452103        3.2258308136
 H        -5.1576778589        1.3448858207        3.7861964751
 H        -8.0822399559       -2.0902465509        0.1912052403
 H        -8.0101155199       -0.3269287720       -0.2534111312
 H       -10.1609996722       -0.9499268812        1.7693730721
 H       -10.4427824199       -1.5451498422        0.1597698623
 H       -11.9647596464        2.0227989937        4.0634104561
 H       -13.3520497084        2.1181495786        2.8593583057
 H       -12.5338500135        3.5333026419        3.4050757807
 H       -11.9007778137        2.2312283986       -0.7752302827
 H       -13.4193151038        1.8605463768        0.2023233210
 H       -12.5320835930        0.6954260596       -0.7935635223
 H       -13.4254089423        0.2764996805        1.6139772563
 H       -12.0874129383       -0.1822136845        2.8508029995
 H       -12.4627716303       -1.0550141502        1.3340377920
 H        -4.3533101610       -1.7637233066        1.0385308661
 H        -5.5524862843       -1.2642612177       -0.2271724205
 H        -5.8270004141       -2.6907102744        0.8556951537
 H        -5.4335171963       -2.3341454911        3.1607886268
 H        -6.3403690157       -1.1829153178        4.0312871866
 H        -4.6525332631       -0.8179778206        3.4483240834
 H        -3.4701530823        4.3047253164        0.7729619052
 H        -3.9825316762        5.6991393964        1.7304230231
 H        -3.6946739069        5.8881788852       -0.0208353638
 H        -6.0452476415        6.6866543873        1.6602435213
 H        -7.3966494422        6.2355960812        0.5888274788
 H        -5.8952248314        6.9171624578        0.0335862877
 H        -5.4643172195        3.1391540537       -6.2589288483
 H        -7.1952010808        3.0578682147       -6.7897180385
 H        -6.7029589335        2.2319986636       -5.3590528412
 H        -7.5763970701        5.9854649962       -6.2780488544
 H        -5.8566032195        5.8254422241       -6.4986857001
 H        -6.5159474606        6.4902365353       -4.9958799484
 H       -13.1596810792        4.5333990964       -3.3141821583
 H       -14.4280251436        5.3892705482       -2.4797125688
 H       -13.2905512940        4.3415660413       -1.5701710569
 H       -12.7355305330        6.8043495381       -4.1912992913
 H       -11.8510789403        8.0905016922       -3.3211652315
 H       -13.5764488881        7.9807044485       -3.1636681996
 H       -14.7803822828        9.2593602614        2.2834867774
 H       -15.9702607521        9.0259152975        1.0763279863
 H       -14.3834316621        8.6205598439        0.7617720649
 H       -16.7349850025        6.3085554942        3.7087778701
 H       -17.5137420080        7.6482419067        2.9212041087
 H       -16.2111771374        8.0155414143        3.9140602087
 Na       -9.1446906718        3.7272243286        0.0902920670
