117

 C       -17.3858022724        5.4267220788        1.1028238278
 C       -16.1832051044        6.2878224142        0.7657875929
 O       -15.7889831152        6.4032783418       -0.3804700674
 C       -15.6223101968        7.1016867018        2.0038712838
 C       -14.3579796419        6.2103736555        2.4992495883
 O       -14.5522133002        5.3538473567        3.3677070492
 C       -13.0157419118        6.3987824950        1.8248235700
 C       -12.9123442044        5.6635097801        0.4395563714
 C       -12.6210570195        6.8015946148       -0.7091135661
 O       -12.3821807579        7.9537746285       -0.4490181386
 C       -12.3621327483        6.2515299315       -2.1999224821
 C       -10.9582548942        5.6296149285       -2.2151249004
 O       -10.2733865277        5.4481872457       -1.1570508302
 C       -10.4040812872        5.1661199858       -3.5301754497
 C        -8.8523804117        5.0995920844       -3.5555327556
 C        -8.3026624007        4.0905169777       -4.5245658130
 O        -8.9760889673        3.1414505129       -4.8878076458
 C        -6.8819915685        4.3650860467       -5.0162696006
 C        -5.8745143677        4.5113696725       -3.8103183093
 O        -5.4619236037        5.6131075650       -3.4763082669
 C        -5.3069594322        3.2122139702       -3.1286171691
 C        -4.7949750890        3.4985390553       -1.6737901469
 C        -5.8889213410        3.9945081654       -0.7114705467
 O        -7.0616664947        3.5854945364       -0.9238792464
 C        -5.5092972033        4.8019100127        0.5839647164
 C        -6.1835773385        3.8285790094        1.6685558293
 O        -7.3822307622        3.6296182374        1.6512480526
 C        -5.2383220332        3.0295520864        2.6326972760
 C        -5.5939530209        1.6138884247        2.9385514305
 C        -5.6172558274        0.7540677531        1.7263915922
 O        -5.3521710473        1.1999639237        0.6298608745
 C        -6.0226358959       -0.7600955831        1.9478227640
 C        -7.5739624075       -0.6376024589        1.8635682565
 O        -8.1902551233       -0.2016659295        2.8010865544
 C        -8.3798768325       -1.1625226394        0.6071390100
 C        -9.8308567239       -0.8318865776        0.6922710134
 C       -10.2007899557        0.6823871074        0.6098554646
 O        -9.5045148817        1.3928415706       -0.0382611570
 C       -11.6097624572        1.1575078282        1.0703414997
 C       -11.4026281543        2.3872693960        1.9622173359
 O       -10.5461522215        3.2399562760        1.8023911260
 C       -12.4384964224        2.5111450887        3.1347112293
 C       -12.4268729519        1.6085780093       -0.1075608212
 C       -12.2127466362       -0.0129663773        1.8697070028
 C        -5.4583215604       -1.5830772606        0.7841308866
 C        -5.7260784306       -1.3166123836        3.3755000262
 C        -4.0520251772        5.1041386956        0.6428594807
 C        -6.3382881144        6.1398058088        0.6190665102
 C        -6.4160586391        3.2004648407       -5.9329625006
 C        -6.8662283268        5.6999677063       -5.9120476407
 C       -13.4120232735        5.0221456701       -2.4882599184
 C       -12.6749138544        7.2812117135       -3.2663917897
 C       -15.2748737056        8.5207569692        1.5379295132
 C       -16.4969903932        7.2821663775        3.2602025296
 H       -17.4411704679        4.5375802158        0.4339682119
 H       -18.2057349815        6.0843260979        1.1098838859
 H       -17.3011425708        5.0008513081        2.1718595652
 H       -12.2495275744        5.9121924042        2.4357541486
 H       -12.7105698131        7.4710228999        1.7430290147
 H       -13.8041631091        5.0664712853        0.3036306022
 H       -12.0774937373        4.9600115914        0.5116475726
 H       -10.7562751222        5.7615074660       -4.2964354853
 H       -10.8147592468        4.2058494024       -3.6792039233
 H        -8.5080824990        4.9057358976       -2.4795358463
 H        -8.4455521197        6.0565096428       -3.7916237348
 H        -4.5436028678        2.7282401697       -3.7797299249
 H        -6.0671569767        2.3773536160       -3.0571906797
 H        -3.9539407030        4.1670920361       -1.7303422569
 H        -4.3580383352        2.5165391326       -1.3556004354
 H        -5.1318033475        3.5793703267        3.5901190624
 H        -4.2175427880        3.0367806386        2.2447432352
 H        -6.6037188578        1.6526446332        3.3604898594
 H        -4.9673707615        1.2727658471        3.7193705231
 H        -8.2359638276       -2.1931544027        0.6730475011
 H        -7.8410599755       -0.7817623380       -0.2805545464
 H       -10.1413969796       -1.1038193277        1.7001013395
 H       -10.4792924358       -1.4159208111        0.0040060853
 H       -12.0521292207        2.0524579976        4.0220034268
 H       -13.4117120265        2.0509086554        2.8267399679
 H       -12.6750566672        3.5322441378        3.3951136214
 H       -11.7941229100        2.3218345022       -0.7048323968
 H       -13.2835725360        2.0652018700        0.3076056930
 H       -12.6406339751        0.8545408788       -0.8022652816
 H       -13.3083983120        0.1249256023        1.9557232222
 H       -11.6302988584       -0.1855196430        2.7910051332
 H       -12.1447261470       -0.9736504900        1.3009780629
 H        -4.3900138614       -1.6020291386        0.8851268250
 H        -5.7446361624       -1.1668580683       -0.1361976572
 H        -5.7529539013       -2.6273017835        0.8956786098
 H        -5.6920666453       -2.4542620333        3.3637545829
 H        -6.4945889191       -1.1153201859        4.1493279396
 H        -4.7963386167       -0.9229784136        3.6433711858
 H        -3.5019905406        4.1616012942        0.6779735458
 H        -3.8448561108        5.7626626820        1.5123717077
 H        -3.7111436560        5.6618343600       -0.3172346924
 H        -6.2146686164        6.7226002632        1.5446321979
 H        -7.3823722271        6.0169675887        0.4543502883
 H        -5.9709531814        6.8797163203       -0.0905687781
 H        -5.6210179466        3.6172894266       -6.5358904922
 H        -7.2609313764        2.9050962602       -6.6295943379
 H        -6.1054856579        2.3131196855       -5.4534551311
 H        -7.6505667196        5.6845553101       -6.6601124388
 H        -5.8749963981        5.8075675386       -6.3263519443
 H        -7.0094005261        6.5816518913       -5.2547214395
 H       -13.1520603968        4.7356842852       -3.5019219284
 H       -14.4057386006        5.5065217339       -2.5210515473
 H       -13.3953538563        4.1822166406       -1.8449255482
 H       -12.9920674355        6.7845208028       -4.2690388725
 H       -11.7480903780        7.8408330251       -3.4754366677
 H       -13.3602970364        8.0807998860       -3.0577164043
 H       -15.0741656964        9.2140544517        2.3486873634
 H       -16.1173720443        8.9535510107        1.0387213000
 H       -14.4551147619        8.7501423300        0.9160440837
 H       -16.7291967441        6.3674132838        3.7765227796
 H       -17.4320698120        7.7922994021        3.0934140813
 H       -15.9781776848        8.0025723631        3.8787635318
 Na       -9.2309872265        3.8960603867        0.0517449929
