117

 C       -17.5202482121        5.3697197823        1.0299906137
 C       -16.2834939813        6.2119823191        0.7352847432
 O       -15.9180578851        6.3547186276       -0.4000544851
 C       -15.5508765278        6.9880073404        1.9675476213
 C       -14.3246184154        6.2589887131        2.4902619408
 O       -14.2916206056        5.5163178079        3.4860479134
 C       -13.0329116909        6.5166779375        1.7147874506
 C       -12.9221196557        5.8253061857        0.3036387575
 C       -12.5155913724        6.8138769348       -0.7877132333
 O       -12.3725713046        7.9651667240       -0.4830741803
 C       -12.2823343495        6.2274537218       -2.2111492552
 C       -10.8417979920        5.5888298287       -2.2259251390
 O       -10.2570712870        5.4183297200       -1.1350927735
 C       -10.2800564383        5.0940961432       -3.5592079782
 C        -8.7363297504        4.8679912402       -3.5246122843
 C        -8.2382446681        3.9904979775       -4.6375935112
 O        -8.9232514656        3.0560587967       -5.0556392116
 C        -6.8489724488        4.2857282589       -5.3119207077
 C        -5.8338783612        4.4561794165       -4.1364828723
 O        -5.5908165894        5.5691933756       -3.6869417316
 C        -5.2671903937        3.1779757119       -3.4982442503
 C        -4.8365544727        3.5026035863       -1.9740639509
 C        -5.9847292013        3.8169499638       -0.9959085273
 O        -7.1709116308        3.6531750945       -1.3847960939
 C        -5.7569933392        4.5597213031        0.3708650737
 C        -6.2139526877        3.7099609618        1.7057989400
 O        -7.4172765142        3.6161110091        1.9255219482
 C        -5.2470194632        3.0655742906        2.6433689570
 C        -5.6920540644        1.7066733826        3.1577223356
 C        -5.7581295828        0.8111806006        1.9495092464
 O        -5.6559392118        1.1712318440        0.8328982893
 C        -6.0926411347       -0.7260352939        2.2208512827
 C        -7.6992799262       -0.6556566091        2.0771361550
 O        -8.3999143840       -0.2152185483        2.9337962946
 C        -8.3381864639       -1.0444470652        0.6946432558
 C        -9.8672262940       -0.6872144272        0.5969308356
 C       -10.0653494611        0.7685347978        0.9964867873
 O        -9.2353851210        1.5379649868        0.5683430691
 C       -11.5559886336        1.2465461198        1.3727003716
 C       -11.4787722060        2.6519480667        2.1835774253
 O       -10.7585031516        3.5828893194        1.8485149760
 C       -12.4583018540        2.8211920912        3.3012286903
 C       -12.2576261692        1.6665195600        0.0084286502
 C       -12.4100599344        0.1209890953        2.0047762357
 C        -5.4531700642       -1.6329744705        1.0971190357
 C        -5.6023773155       -1.3680006569        3.5641545501
 C        -4.1781218817        4.8460305439        0.5315463925
 C        -6.4747171692        5.8696820633        0.2482940249
 C        -6.4397423571        3.0899641963       -6.1206666410
 C        -6.8899986004        5.5775786463       -6.2451721914
 C       -13.3565039260        5.1533656311       -2.5303214052
 C       -12.4038287000        7.3921290370       -3.2682435783
 C       -15.1140250203        8.3595965417        1.4231736149
 C       -16.4926197518        7.2781590408        3.2251517021
 H       -17.1318531851        4.3699582634        1.1998363298
 H       -18.1467537316        5.4237415233        0.1725580503
 H       -18.1027917219        5.7634516499        1.9032066895
 H       -12.1547343745        6.2314473407        2.3145414340
 H       -12.8616561219        7.5834188181        1.5186970736
 H       -13.8581692024        5.1797511609        0.1061440563
 H       -12.0487650320        5.1245401121        0.3425694491
 H       -10.5531632489        5.7732156814       -4.4106985689
 H       -10.7663890025        4.0223367883       -3.7782310524
 H        -8.7115078594        4.1854284921       -2.6324179366
 H        -8.1367260736        5.7665653767       -3.3615912758
 H        -4.4976739886        2.7747896149       -4.0403707275
 H        -6.0574492049        2.3964361965       -3.4905079922
 H        -4.1135010192        4.2925410676       -1.9972346137
 H        -4.2992241090        2.6384542856       -1.6186320140
 H        -5.1810138131        3.7621767310        3.4959242053
 H        -4.2752049512        2.9711002810        2.2480559098
 H        -6.7141982610        1.7996166044        3.6392256408
 H        -4.9769473644        1.3778421390        3.9009803418
 H        -8.1230303787       -2.1286666110        0.6207419293
 H        -7.6462168683       -0.4890705918       -0.0578496579
 H       -10.4833757274       -1.3633116249        1.1984341772
 H       -10.2319054267       -0.6877781491       -0.4248262083
 H       -12.5485744349        1.9599812886        3.9968145552
 H       -13.4725310017        2.9476982926        2.8340787920
 H       -12.1913977782        3.7165271432        3.8197471447
 H       -11.6563801651        2.5906651483       -0.4220767963
 H       -13.3085324417        1.8582206422        0.2143764337
 H       -12.1750071620        0.8705523689       -0.7076333203
 H       -13.2837422329        0.5785411209        2.3863644204
 H       -11.8054051460       -0.2228023533        2.8919254716
 H       -12.5248723092       -0.7190337518        1.2938646192
 H        -4.3721528321       -1.8581476460        1.2154680656
 H        -5.5560309167       -1.1300520420        0.1536746721
 H        -5.9826774371       -2.6452366910        1.1372216965
 H        -6.2880561997       -2.1843964671        3.7994325749
 H        -5.7177055871       -0.6521200938        4.4106285108
 H        -4.6188739302       -1.6584907467        3.5124187894
 H        -3.5702293058        4.0474235774        0.3920116029
 H        -4.1179072158        5.1723917747        1.5424592818
 H        -3.8009274695        5.5819539179       -0.1932059089
 H        -6.2637858190        6.6047815583        1.0690841089
 H        -7.5426803412        5.7095808905        0.3239305992
 H        -6.2794235680        6.3990412128       -0.6639775335
 H        -5.5936891367        3.3592146644       -6.7272107011
 H        -7.2570218681        2.7935616259       -6.8803957330
 H        -6.1945987721        2.2971967471       -5.4717138997
 H        -7.3123781303        5.2626549586       -7.1798008976
 H        -5.8884949688        5.9782152824       -6.2845156421
 H        -7.5634557211        6.4014629352       -5.9275301759
 H       -13.3287181005        4.7909126971       -3.5341741919
 H       -14.3165033334        5.4708812911       -2.0721456307
 H       -13.0511426239        4.3155595517       -1.8725346395
 H       -12.2432951329        7.0491162631       -4.3148011944
 H       -11.7127114340        8.1987308873       -3.1542096326
 H       -13.4351964167        7.7245875063       -3.3184587908
 H       -14.2509981663        8.9131499647        1.8929962650
 H       -15.8833397963        9.1042637405        1.3516944031
 H       -14.6767904343        8.2526983124        0.4035768837
 H       -16.6797614436        6.3689667129        3.8191799854
 H       -17.4660483401        7.6792775372        3.0068071795
 H       -16.0068555107        8.0767195874        3.7847350605
 Na       -8.9421100622        3.8233403132        0.2590280968
