117

 C       -17.5040808235        5.3506702055        1.1226716027
 C       -16.2931172600        6.2705252897        0.7650879879
 O       -15.8362203047        6.2992625601       -0.3601275837
 C       -15.5663066270        7.0152953745        1.8939969909
 C       -14.2822922900        6.1628262154        2.4274928759
 O       -14.3090928368        5.5224317817        3.4586499792
 C       -12.9849628081        6.4852174469        1.7100036714
 C       -12.8640828235        5.7817537109        0.3369283492
 C       -12.4257410701        6.8799371607       -0.7757867479
 O       -12.3703995457        8.0641457628       -0.4914252370
 C       -12.2404237723        6.2376105781       -2.1522439414
 C       -10.8241153839        5.5284088312       -2.2289384216
 O       -10.2414921926        5.2791049383       -1.1541594918
 C       -10.2812284851        5.0754311422       -3.5510272490
 C        -8.7362639597        4.8274184519       -3.5862395243
 C        -8.3612704792        3.9428265484       -4.8012667515
 O        -8.8981017088        2.9563268893       -5.1094199867
 C        -6.8398460658        4.2085578997       -5.4572716474
 C        -5.9086038749        4.4780533343       -4.1558635360
 O        -5.6249440858        5.5901201748       -3.7534202907
 C        -5.2900447572        3.2479449489       -3.4151387969
 C        -4.8518886262        3.4935722369       -1.9739137984
 C        -5.9962955596        3.7950358361       -1.0468061976
 O        -7.1578136313        3.4546372707       -1.2854736044
 C        -5.7434296978        4.5204324180        0.3515627907
 C        -6.2318675521        3.6682456264        1.5772243069
 O        -7.3886137397        3.6381128875        1.8521589191
 C        -5.2360184394        3.1349563650        2.6892349214
 C        -5.7267029780        1.7329818939        3.1822704319
 C        -5.7592019959        0.7241861365        2.0305461244
 O        -5.6680707112        1.1792729022        0.8695419075
 C        -6.2087728649       -0.7883993185        2.2233363358
 C        -7.7073686550       -0.6708410761        2.0575471850
 O        -8.4282197278       -0.3009768466        3.0059013279
 C        -8.3200330230       -0.9753571049        0.7063448339
 C        -9.8204733133       -0.7385690139        0.7708038365
 C       -10.1368653463        0.8407184077        0.9315439770
 O        -9.2291315212        1.6174177553        0.8101633409
 C       -11.5177195038        1.3510978531        1.3539629774
 C       -11.4933826939        2.6971285060        2.1699068810
 O       -10.7938339165        3.6312637503        1.7760590377
 C       -12.4217988331        2.8307746915        3.3898324281
 C       -12.1535727036        1.7605483863       -0.0335690696
 C       -12.2882615901        0.2560962911        2.1215139608
 C        -5.5485405741       -1.6261013024        1.1100682657
 C        -5.7735949416       -1.1884877435        3.6415966579
 C        -4.1789040399        4.8529587175        0.4640160790
 C        -6.4811819710        5.8573096692        0.2984421293
 C        -6.6028536297        3.0195091636       -6.3633023874
 C        -6.7367783330        5.5279634942       -6.2480596156
 C       -13.2630520355        5.2112739676       -2.6261928396
 C       -12.3702995226        7.3509529621       -3.2814203870
 C       -15.2382925676        8.4269960858        1.4055845121
 C       -16.4816785697        7.2991519957        3.1656586906
 H       -17.0732846682        4.4749310542        1.7085245912
 H       -18.0387464504        5.0363557894        0.2378773967
 H       -18.2049417099        5.9647007710        1.7508300823
 H       -12.1647472717        6.1583547951        2.3736500724
 H       -12.8018358027        7.5840794488        1.5268648179
 H       -13.8837063354        5.4501806552        0.0512116385
 H       -12.2129346510        4.8331060908        0.4511064401
 H       -10.4239739416        5.8782503867       -4.2950150477
 H       -10.8242113951        4.1910805515       -3.9164140820
 H        -8.4419248419        4.2800616074       -2.6203607892
 H        -8.2349373899        5.7799664537       -3.6743856294
 H        -4.3290071376        3.0386188361       -3.9588303848
 H        -5.9120307377        2.3789883583       -3.5285899473
 H        -4.1487540939        4.2689752391       -2.0619414341
 H        -4.2870009472        2.6413853753       -1.5825326400
 H        -5.1175442237        3.8330814503        3.5066271816
 H        -4.2733575991        2.9258708985        2.2486965479
 H        -6.7482527983        1.8180109416        3.5493791747
 H        -5.0652567806        1.4453770691        3.9725249394
 H        -8.0740678920       -2.0092355909        0.4063145767
 H        -7.7584083536       -0.2469821874        0.0442378232
 H       -10.1662230763       -1.2297728932        1.6945666729
 H       -10.2935354618       -1.1736483112       -0.1241157811
 H       -12.5285266541        1.9818991781        4.0275335731
 H       -13.4589761101        3.0883172955        3.0638787868
 H       -11.9785824238        3.7011221597        3.9072664709
 H       -11.6492048215        2.6625038197       -0.3583237468
 H       -13.2412751105        1.8404780697        0.0357832759
 H       -11.9216243479        0.9453095842       -0.7425155310
 H       -13.3602209912        0.5734296310        2.1869984831
 H       -11.9441261842        0.2441138647        3.1694210452
 H       -12.0455710737       -0.6903002977        1.6126674522
 H        -4.4389906673       -1.7094196339        1.1435561992
 H        -5.7595822474       -1.0571989811        0.1802127667
 H        -5.9608503033       -2.6442342906        1.1055999270
 H        -6.2457577828       -2.1382174674        3.9953694693
 H        -6.1772089255       -0.4079540516        4.2394929074
 H        -4.7076984755       -1.1706098956        3.7653610146
 H        -3.4798888690        3.9826369265        0.4734130883
 H        -4.0689462827        5.3766793803        1.3501230027
 H        -3.8939300724        5.3729865498       -0.4269085197
 H        -6.2930099148        6.5602533193        1.1180088773
 H        -7.5412225050        5.6583003487        0.3922230864
 H        -6.3328141093        6.4106359441       -0.6568016353
 H        -5.5830295281        3.0401060692       -6.7946896253
 H        -7.2277429763        3.2276818067       -7.2188668054
 H        -6.8231437192        2.0614267456       -5.8944495271
 H        -7.3506621884        5.4728304214       -7.0964871029
 H        -5.7331495199        5.8288930773       -6.3796539899
 H        -7.2151153813        6.2927561625       -5.6625573926
 H       -12.9939311778        4.9103494130       -3.6476650750
 H       -14.1953113788        5.7255742799       -2.4688692783
 H       -13.3211696656        4.3286161614       -2.0636523054
 H       -11.8865971322        7.1254112270       -4.3119515624
 H       -11.8970405744        8.3059428712       -3.0316303680
 H       -13.3967387517        7.4397550218       -3.5533549570
 H       -14.5869853158        9.0755510456        2.0178307417
 H       -16.1645028194        9.0309623979        1.2306126175
 H       -14.6651919294        8.4599633311        0.4834001324
 H       -16.6054203711        6.3854955460        3.7082777644
 H       -17.4939435774        7.6539009451        2.9569516670
 H       -16.0036801362        8.0625369468        3.7799528777
 Na       -8.9400976621        3.7687955308        0.3430410564
