117

 C       -13.2423745491        6.5350581542       -6.2633545861
 C       -11.8891961227        7.0762984677       -6.0991544920
 O       -11.0201552098        6.3766030106       -5.5233432461
 C       -11.4074175073        8.4684113715       -6.7442641564
 C       -10.8775517800        9.4199824111       -5.5273485090
 O       -11.5769760988       10.3340164824       -5.0977467151
 C        -9.4677412433        9.2930587451       -5.0618638265
 C        -9.3778781029        9.0223127258       -3.5808163355
 C        -7.9599495291        8.8112445472       -3.1088666606
 O        -7.0447920825        9.1667204770       -3.8089338529
 C        -7.7139950409        8.0966423339       -1.6798798014
 C        -8.7175161046        6.9163549498       -1.4944589170
 O        -9.7563864972        7.0990242171       -0.9372442972
 C        -8.4983514598        5.5586443879       -2.3155780445
 C        -9.8582925640        4.9171023528       -2.6169821022
 C       -10.3063954489        3.7323840023       -1.7824581003
 O        -9.5422654849        3.0593487836       -1.0860128501
 C       -11.8323920966        3.0950350408       -1.8805513638
 C       -12.2386719652        2.7176062960       -0.4000300676
 O       -11.9279005320        1.5544624154       -0.0162086594
 C       -13.2954025916        3.6327591582        0.4480460708
 C       -12.8251508123        4.1427731840        1.9064815792
 C       -11.3530889447        4.1947568685        2.1019865066
 O       -10.5820906685        4.2625328455        1.1967489540
 C       -10.7877917817        4.2599726049        3.5681082040
 C       -10.5836375066        2.6485426180        4.0003922499
 O       -10.8144518843        1.7499697246        3.2473932649
 C       -10.2360353908        2.3855039649        5.5051885269
 C        -9.4658025787        1.1381677273        5.9826069483
 C       -10.4327279712       -0.1300062378        5.8283840199
 O       -11.6018233207       -0.1874524063        6.1025143472
 C        -9.6456314465       -1.4586610210        5.3721287436
 C        -8.7470474316       -1.3603024260        4.1706701625
 O        -7.7429611997       -0.6941002863        4.1877483068
 C        -9.1050583042       -2.3839615762        3.0669752899
 C        -8.2190410955       -2.2428579976        1.7884678746
 C        -8.1367651267       -0.8436509797        1.0857381514
 O        -9.1686760803       -0.2354775038        0.9174386970
 C        -6.7612631906       -0.2837861590        0.5502448057
 C        -6.5920601668        1.1600204429        1.1249824355
 O        -7.5824874872        1.8028997672        1.3846538408
 C        -5.1947256786        1.7496194556        1.3816810272
 C        -5.6483676130       -1.1846903462        1.0177617447
 C        -6.6697152838       -0.1893573360       -0.9994404911
 C        -8.6546312186       -1.7816081441        6.6209513718
 C       -10.6125445739       -2.7109964025        5.3610553989
 C        -9.3641571295        5.0014781249        3.5589877167
 C       -11.7714010106        4.8861051276        4.5372397182
 C       -12.9481590631        3.8671646372       -2.5692938576
 C       -11.4522538441        1.8066185133       -2.7885894798
 C        -6.2925276230        7.5220664421       -1.6144179732
 C        -7.8883815395        9.2130945735       -0.5755127506
 C       -10.2965413248        8.1080223739       -7.8062148837
 C       -12.5080958799        9.3677108361       -7.4727145065
 H       -13.8806955475        6.9343103829       -5.5501921289
 H       -13.3219531463        5.5151547328       -6.2491037284
 H       -13.7336311009        6.7989915081       -7.2466629748
 H        -8.9423812467       10.2080366592       -5.3754239123
 H        -9.0075734624        8.5617145548       -5.7393755688
 H        -9.8794962027        8.0882668041       -3.4704513267
 H       -10.0295286885        9.7866132209       -3.0549690425
 H        -7.9385766897        4.8141739444       -1.6824487748
 H        -8.0015740378        5.8213702704       -3.2505377569
 H        -9.8392768432        4.4972088825       -3.5736267316
 H       -10.6274407548        5.6401098976       -2.5041057759
 H       -14.2230930590        3.1837323900        0.6863112437
 H       -13.5586412543        4.4808901143       -0.1514021812
 H       -13.3472436600        3.5058192748        2.6971251097
 H       -13.2960446238        5.0518321544        2.1871177803
 H       -11.1242128511        2.5934688890        6.0646341736
 H        -9.6788536968        3.2616379247        5.8425144403
 H        -9.3106008661        1.1651019191        7.0471748736
 H        -8.5572990547        1.0942736564        5.4402924379
 H       -10.1735934082       -2.4399601904        2.9684429724
 H        -8.8033166528       -3.2912886582        3.6077687897
 H        -8.6195186740       -2.9145935652        1.0047418001
 H        -7.2523327078       -2.5736038119        2.2401449909
 H        -5.0363607515        1.3367380806        2.4007472187
 H        -5.0331990212        2.8026875409        1.3374989725
 H        -4.4865293040        1.2616396687        0.7234599509
 H        -5.6119456631       -2.1953281472        0.4773357109
 H        -5.5404338234       -1.2138258992        2.0577443239
 H        -4.6490300839       -0.8055404485        0.6987763355
 H        -6.8359629545       -1.0781289589       -1.5242804749
 H        -5.6185287944        0.1251110230       -1.1851027476
 H        -7.4104024466        0.5673663252       -1.3231659388
 H        -9.0961246353       -1.2838299834        7.4879691207
 H        -7.6055679446       -1.5714752229        6.6446759130
 H        -8.7400461038       -2.8331788401        6.7751636999
 H       -11.2882953166       -2.5241150971        6.1486510508
 H       -10.1713823607       -3.6703417472        5.4583203151
 H       -11.2115257282       -2.7252582522        4.4816435866
 H        -9.2416706265        5.8960839828        3.0071535403
 H        -8.5916367697        4.3469257238        3.2152341378
 H        -9.1983325949        5.3298267941        4.5841440497
 H       -12.1898087076        5.7628902914        4.0397500370
 H       -11.3327051670        5.0606079751        5.4986075701
 H       -12.5398541448        4.2381562612        4.7988305451
 H       -13.8860240320        3.2518604952       -2.4654971297
 H       -12.8168685150        4.0980228890       -3.6321387716
 H       -13.0554858731        4.8036489293       -2.0564153630
 H       -12.4663563932        1.5225315309       -2.9971496585
 H       -10.8379806900        1.1038859035       -2.2711375920
 H       -10.8673185050        2.0732434180       -3.6636719841
 H        -5.6868293147        8.3082853273       -2.0802576792
 H        -6.1889725867        6.6918478468       -2.2741184823
 H        -5.9690170706        7.3299479829       -0.5952842793
 H        -7.1604184210       10.0147298382       -0.7603316393
 H        -7.6103533117        8.7329661997        0.3663207641
 H        -8.9460664076        9.6420877108       -0.5252508665
 H        -9.6217227546        7.3701103514       -7.3918708614
 H        -9.9143793444        9.0785608051       -8.0147900180
 H       -10.8258337036        7.7559542692       -8.7516036508
 H       -13.3205507575        9.7300879916       -6.7993613631
 H       -13.0569700593        8.8972200937       -8.2806967052
 H       -11.9848333702       10.2731786001       -7.8485830569
 Na       -9.7894616965        1.9029791637        1.1187321926
