117

 C       -17.3829154944        5.2474296548        1.2973287363
 C       -16.2433434193        6.1927104751        0.8559953678
 O       -15.6587514861        6.0601914624       -0.1958386865
 C       -15.6442833037        7.1231476527        1.9420496064
 C       -14.3877710075        6.2330616590        2.3272136091
 O       -14.4569171920        5.2865609679        3.1079922887
 C       -12.9971502012        6.6451231823        1.6928908732
 C       -12.7739410400        5.8744363029        0.3141068457
 C       -12.2569694099        6.8655138348       -0.7536378823
 O       -12.2969056704        8.0364846574       -0.5039102614
 C       -12.0247414425        6.3316376766       -2.2924427371
 C       -10.7292154247        5.4260180574       -2.3884271446
 O       -10.2581732807        4.9638794245       -1.3119317411
 C       -10.3128982365        4.8946984265       -3.7603907683
 C        -8.7953665566        4.9773392070       -3.9369398422
 C        -8.3209108089        3.9401730748       -4.9362169939
 O        -9.0215062976        3.0700276422       -5.2566719617
 C        -6.8679245647        4.1232617018       -5.5637441987
 C        -5.9860024670        4.2426586673       -4.2371135500
 O        -5.7090667475        5.3156837027       -3.7467999522
 C        -5.7206206648        2.9836872041       -3.3903336263
 C        -4.9584808234        3.4024569912       -2.0912417872
 C        -5.9586922163        3.6584519045       -0.9392459939
 O        -7.0586001518        3.0916894667       -0.9401011216
 C        -5.5615905434        4.5699521367        0.3170345066
 C        -6.1012696686        3.7891924891        1.5898266549
 O        -7.2935522187        3.7181927593        1.8207244590
 C        -5.0916030794        3.2243713964        2.5336692328
 C        -5.6299205205        1.8562918554        3.0927332954
 C        -5.7693624108        0.8230470082        2.0545490258
 O        -5.5413766342        1.0952359137        0.8941485274
 C        -6.1560607272       -0.6585410738        2.4199313205
 C        -7.8849355699       -0.8238086203        2.3120083427
 O        -8.5623917981       -0.6051629108        3.3214846502
 C        -8.5305113570       -1.1353507199        0.9338329177
 C       -10.0399118886       -0.5930948906        0.9226350602
 C       -10.1777083953        0.9113778000        1.1975635955
 O        -9.2718202961        1.6912106706        1.1023157456
 C       -11.6408925312        1.5102665873        1.3560515841
 C       -11.4397959015        2.8937056511        2.2015898836
 O       -10.9256798785        3.8791363156        1.6792934716
 C       -12.0675259987        3.0699484495        3.6033338047
 C       -12.0763996857        1.8504255517       -0.0945205414
 C       -12.6314506119        0.5174825643        2.1542056474
 C        -5.4864902510       -1.6094014370        1.4102026153
 C        -5.8087651101       -0.9751116179        3.8656387392
 C        -4.0938098058        4.8964288203        0.3534989429
 C        -6.3889496146        5.9303437402        0.1499562018
 C        -6.3438375588        2.9359855080       -6.3981898310
 C        -7.0495874810        5.4001560523       -6.4469254552
 C       -13.2808920448        5.3357463707       -2.7051996763
 C       -11.9421769336        7.4445022368       -3.2349824704
 C       -15.2992335117        8.4928984614        1.3061826234
 C       -16.4061702280        7.4846081378        3.1727013414
 H       -17.3530981456        5.1001045951        2.3597484531
 H       -17.1340294980        4.3467611575        0.9006838467
 H       -18.3655406168        5.5479503473        0.9073491886
 H       -12.1888009764        6.5346855217        2.3890822036
 H       -13.0702247206        7.6849304695        1.4299605885
 H       -13.6716841940        5.3558142213       -0.0582391163
 H       -12.0444903354        5.0774958124        0.4791619227
 H       -10.7131800786        5.4780375697       -4.6174391993
 H       -10.6238433449        3.7753324840       -3.9172655255
 H        -8.2997451733        4.7367701383       -2.9828656042
 H        -8.5768786714        5.9519043189       -4.2359080979
 H        -5.1254817295        2.4148504482       -4.0182509733
 H        -6.6362060663        2.4101326858       -3.0804460702
 H        -4.3609348042        4.2774350036       -2.3649550273
 H        -4.2338200597        2.6631218133       -1.6892240757
 H        -5.0455804989        3.9434882434        3.3864989569
 H        -4.1433080705        3.0632139053        2.0528270227
 H        -6.6375783529        2.1298179273        3.5879970878
 H        -4.9064546028        1.4794550161        3.8259072612
 H        -8.4983627026       -2.2113612541        0.8823513457
 H        -7.8164481210       -0.7073397538        0.1275844686
 H       -10.5340192155       -1.0012124462        1.7992083465
 H       -10.5023028823       -0.8113111267       -0.0242106269
 H       -11.8192659001        2.2744480188        4.2646399314
 H       -13.1664774373        2.9508739028        3.5082218874
 H       -11.7702349987        4.0439311370        3.9371356715
 H       -11.2879858161        2.5764642456       -0.4823005877
 H       -13.0500046827        2.3422670354       -0.1148799804
 H       -12.1802545860        0.9022169332       -0.5706862694
 H       -13.3858349988        1.0808713681        2.6196134783
 H       -12.1480006164        0.0483507905        2.9696692652
 H       -13.0220460227       -0.0425081384        1.3441212643
 H        -4.4287425513       -1.5876610436        1.5941899222
 H        -5.5973688808       -1.2649304818        0.4256812120
 H        -5.8856177402       -2.6312713952        1.5212193089
 H        -5.4429571274       -2.0282595872        3.9249743187
 H        -6.6833308372       -0.7845773635        4.5340062746
 H        -5.0084549284       -0.3982550914        4.1788095641
 H        -3.5704990851        3.9679341557        0.1674552450
 H        -3.8504797143        5.2035083973        1.3468393756
 H        -3.8379308081        5.6340646689       -0.4695559374
 H        -6.4185675998        6.5610696790        1.0615375561
 H        -7.4185338853        5.8230076851       -0.0933735972
 H        -5.9665324129        6.4726050565       -0.6768021131
 H        -5.2692694537        2.9675854823       -6.3849265274
 H        -6.6140807669        3.0530977007       -7.4914008572
 H        -6.6445787303        1.9926394689       -6.0221739895
 H        -8.0997259400        5.4839373176       -6.7744661904
 H        -6.2653654402        5.4952132871       -7.2198738182
 H        -6.8675310923        6.2572263700       -5.7100412110
 H       -13.1893156030        5.2254526958       -3.7921772833
 H       -14.2172600128        5.8931291121       -2.4347941736
 H       -13.3600804841        4.3164014438       -2.2922234587
 H       -11.7966433278        7.0963289930       -4.2944801976
 H       -11.0436358100        7.9530097085       -3.0958575794
 H       -12.7819543820        8.0609287983       -3.1798873347
 H       -15.1173184733        9.2463862297        2.0958155646
 H       -16.1776783304        8.8669828394        0.8377446909
 H       -14.5271686232        8.6696860062        0.5679957340
 H       -16.4451765291        6.6720068090        3.9266297280
 H       -17.4064037073        7.8346692887        2.8980115096
 H       -15.8380693655        8.2729468016        3.7030497570
 Na       -9.1144376886        3.7882967423        0.0909319333
