117

 C       -17.4125085181        5.1628869936        1.3734155310
 C       -16.3306708856        6.1218318332        0.9474837507
 O       -15.8470560572        6.0278480631       -0.1744428409
 C       -15.5909094032        7.1189779379        1.8837984791
 C       -14.1972115970        6.3237597416        2.2528393610
 O       -14.4390867442        5.3069052013        2.8753828132
 C       -12.8391549603        6.6342920886        1.6308998085
 C       -12.6400560872        5.9759686441        0.2697682975
 C       -12.2403276201        6.9222173145       -0.8273959166
 O       -12.0148484238        8.1185063546       -0.6769993318
 C       -12.0995199019        6.2928683154       -2.3528358560
 C       -10.8237637142        5.3565112582       -2.4140035889
 O       -10.2477548513        5.0444641011       -1.4071839411
 C       -10.5649942910        4.7759433018       -3.7970331918
 C        -9.0247990259        4.8779923082       -4.0929918078
 C        -8.3952895051        3.9060710654       -5.0545377083
 O        -9.0745110932        2.9090995918       -5.4153641315
 C        -6.9366867185        4.0895532223       -5.4587591300
 C        -6.1209489883        4.3815510929       -4.1532001077
 O        -5.6322353294        5.4612571444       -3.8607386434
 C        -5.7786033463        3.0500452632       -3.4199172542
 C        -5.0660904232        3.0938223066       -2.0369504274
 C        -6.0039190529        3.5709845985       -0.9300302200
 O        -7.1515235604        3.2245136646       -1.0627043045
 C        -5.5478051777        4.5760818917        0.1975049653
 C        -6.0541382006        3.9262016156        1.5244134727
 O        -7.2721574149        3.9940873515        1.7820943364
 C        -5.1054075108        3.1749683003        2.4570470715
 C        -5.6715133028        1.9406589056        3.1167009298
 C        -5.8114828697        0.7846898888        2.1113312500
 O        -5.5642741545        0.9962981175        0.9573068195
 C        -6.2455435323       -0.6375318138        2.5473009497
 C        -7.8537427887       -0.6738712736        2.6251109283
 O        -8.4690991667       -0.6749298912        3.6220979993
 C        -8.5790241800       -0.9860055708        1.1551017113
 C       -10.0829608007       -0.6780406879        1.1491931208
 C       -10.2352808995        0.8885943657        1.2757381986
 O        -9.2032219450        1.5266739626        1.1456452792
 C       -11.6605283976        1.6235715083        1.4768413785
 C       -11.3659420545        2.9897419444        2.2208805685
 O       -10.7745045356        3.8798058543        1.6234203607
 C       -11.8736386527        3.0746586598        3.6252888920
 C       -12.2032870510        2.0277267234       -0.0037813369
 C       -12.7772083977        0.7044297370        2.0361682335
 C        -5.6760671022       -1.6772818847        1.5772825879
 C        -5.7893745375       -0.9824557539        3.9409031244
 C        -4.0411058004        4.8402171256        0.1709134656
 C        -6.2936126655        5.8612751367       -0.1203971016
 C        -6.4962141090        2.7588310338       -6.2356219702
 C        -6.7389482406        5.3085676962       -6.3317734439
 C       -13.4976743528        5.6469449193       -2.7086596363
 C       -11.7100139674        7.5379834302       -3.1991157771
 C       -15.2684947515        8.3786796570        1.0494030536
 C       -16.4266828542        7.3642451341        3.1407756523
 H       -17.4775740720        5.0835858679        2.4630432661
 H       -17.1906987647        4.1025504118        0.9803009641
 H       -18.3293851679        5.5437417812        0.9263638943
 H       -12.1193694628        6.1844451893        2.3564393125
 H       -12.7135517373        7.7413700312        1.6444998331
 H       -13.6213981916        5.5468385825       -0.0684537941
 H       -11.9709652023        5.0990532610        0.4103217253
 H       -11.0532890395        5.3019939519       -4.6159588012
 H       -10.8984194942        3.7548837818       -3.7821427021
 H        -8.4439914481        4.8062244662       -3.1378954040
 H        -8.9010031527        5.9345752172       -4.5553350116
 H        -5.1015446121        2.4346361606       -4.0910869555
 H        -6.6660193329        2.5182018856       -3.1850836103
 H        -4.1293105384        3.6280267073       -2.0765260653
 H        -4.7824510762        2.0797302544       -1.8794805695
 H        -4.9654868319        3.8822357970        3.2432817353
 H        -4.1651341127        2.8920761680        1.9600183835
 H        -6.6072225316        2.1740091485        3.5073103255
 H        -4.9573767139        1.7184584033        3.9156202784
 H        -8.4402306516       -2.1080169229        1.0198704284
 H        -8.0799687081       -0.4985817070        0.3630254936
 H       -10.5411919969       -1.1197389467        2.0378198757
 H       -10.4613493330       -1.0165216850        0.1743296900
 H       -11.6005683737        2.1543442924        4.2124002672
 H       -12.9473959537        3.0254015109        3.5772669569
 H       -11.4983985201        3.9889543965        4.0831223570
 H       -11.5753003401        2.8105946844       -0.3883449378
 H       -13.1758146005        2.4790058269        0.1835850241
 H       -12.3749262921        1.1121202578       -0.5910586718
 H       -13.7529122389        1.2242908012        1.8775359407
 H       -12.5910555431        0.7021531970        3.1225952916
 H       -12.8147363213       -0.2358389350        1.4814310316
 H        -4.5699664342       -1.6376076874        1.6862746106
 H        -5.9583086065       -1.5493393890        0.4916168642
 H        -6.0632704918       -2.6574679333        1.8985535044
 H        -6.3123959494       -1.8496834573        4.1711844988
 H        -5.9707140048       -0.1680004849        4.6319508318
 H        -4.7203195686       -1.2988252689        3.9314535217
 H        -3.4248493770        3.9758314970        0.3636835788
 H        -3.8183133955        5.6527134992        0.8994573961
 H        -3.8913599246        5.3520450876       -0.7395618575
 H        -5.9267524295        6.6332589417        0.5349542422
 H        -7.4025032339        5.8977171714       -0.0365495800
 H        -6.0669383746        6.1162369685       -1.1566966525
 H        -5.5086591358        2.8557700075       -6.6993559229
 H        -7.2408862602        2.4044309825       -6.9415286648
 H        -6.4106788165        1.9282347143       -5.4971358967
 H        -7.4899912540        5.3166206364       -7.1432492174
 H        -5.7327666441        5.2359945065       -6.7582280781
 H        -6.7903976245        6.1920678476       -5.7446720873
 H       -13.5374571787        5.4534467877       -3.7888066189
 H       -14.3232251498        6.2999205788       -2.4106928406
 H       -13.6135714310        4.6623673942       -2.2051720098
 H       -12.0678270929        7.4315449387       -4.1831898590
 H       -10.6017049847        7.6681407226       -3.3697238444
 H       -12.1507107207        8.4791023954       -2.7043425675
 H       -14.2680539134        8.7897546194        1.2798222068
 H       -15.9587313068        9.2558916997        1.1913970056
 H       -15.3413834452        8.2404650317       -0.0635308412
 H       -16.4505488099        6.5242249286        3.8213663050
 H       -17.4059397033        7.6896276907        2.8140285197
 H       -15.9530001313        8.1168323325        3.7406755776
 Na       -8.9078541351        3.6541126704        0.2797088867
