117

 C       -17.4068536485        5.1950461694        1.4784591101
 C       -16.3149418106        6.0421233490        0.8249059320
 O       -15.9984166226        5.9395889834       -0.3230214647
 C       -15.5111184376        7.0779357289        1.7681250013
 C       -14.2056480573        6.2773368509        2.1669509313
 O       -14.3104372612        5.2899342070        2.9031130798
 C       -12.8036229575        6.6392167743        1.6717834158
 C       -12.6514430609        6.0071149527        0.2142255666
 C       -12.1411339325        6.9843881612       -0.8362196669
 O       -11.9106950000        8.1369223626       -0.5973956763
 C       -12.1135957190        6.4243879852       -2.3160497981
 C       -11.0527677378        5.2883939657       -2.4447903500
 O       -10.3162028481        5.0986423793       -1.4617792476
 C       -10.6410836761        4.6407270043       -3.8241420912
 C        -9.1489792604        4.9433088051       -4.0660614738
 C        -8.5271284653        3.8790107178       -5.0780301835
 O        -9.0805521995        2.8977913542       -5.4320420654
 C        -6.9193819684        4.0853301462       -5.4701507564
 C        -6.0064391560        4.2230094065       -4.1979966026
 O        -5.7002240972        5.3324041257       -3.8284179289
 C        -5.6191414063        2.9024021024       -3.4916550173
 C        -5.0303250227        3.0447603386       -2.0456246352
 C        -6.0593820557        3.6116623313       -1.0094251778
 O        -7.2557965073        3.2844291552       -1.1027197110
 C        -5.5626321642        4.5575194638        0.0654465175
 C        -6.0304539296        3.9266270589        1.5430202783
 O        -7.2043176592        4.0935194442        1.9180043135
 C        -5.0674480839        3.2261821140        2.4946145237
 C        -5.7727813461        1.9952234484        3.0525615669
 C        -5.8180115630        0.8156732103        2.0225736319
 O        -5.5939549790        1.0145490155        0.8736822716
 C        -6.3095215193       -0.6635420076        2.6396965745
 C        -7.8596550440       -0.7116428348        2.6520601354
 O        -8.5032089250       -0.6017139972        3.6809614766
 C        -8.5949981280       -0.9410706360        1.3485201867
 C       -10.1024697460       -0.6074822428        1.4479364819
 C       -10.2399223269        0.8766925136        1.2699250203
 O        -9.2384639889        1.5448803259        1.1335601178
 C       -11.6018059872        1.5958484456        1.4144549789
 C       -11.2824887918        2.9516434012        2.2223053464
 O       -10.6888256337        3.9135343889        1.7573248807
 C       -11.7964306020        3.1119572766        3.5992660213
 C       -12.1811098363        2.0064585094       -0.0086022788
 C       -12.7199011244        0.6994972453        2.0125133868
 C        -5.7937859134       -1.7206194386        1.6387704040
 C        -5.8073810841       -1.0423240427        4.0788016922
 C        -3.9835879761        4.7653630208        0.0983130797
 C        -6.2906702739        5.8634248026       -0.2143199911
 C        -6.5726176054        2.7880099594       -6.2031901324
 C        -6.6414948064        5.3227958134       -6.3969893655
 C       -13.4228279613        5.7850346447       -2.7257571519
 C       -11.6385269957        7.5518050535       -3.2850468305
 C       -15.3146719266        8.4517120670        1.0287430141
 C       -16.3179214113        7.3129753688        3.0787453759
 H       -17.3113337663        5.1586329868        2.5849647784
 H       -17.3641168398        4.1844855781        1.1350164549
 H       -18.4071109046        5.6807199359        1.1744840844
 H       -12.1532267981        6.1394469325        2.4405780245
 H       -12.6584540799        7.7275706318        1.7200334107
 H       -13.6238716695        5.6256196653       -0.1053373498
 H       -12.0447894375        5.1712803128        0.2664801759
 H       -11.1826660590        4.9814863838       -4.6119099387
 H       -10.6922163681        3.5998303907       -3.8176689098
 H        -8.6502908409        4.7518637427       -3.1169260633
 H        -8.9505777974        5.9923963258       -4.3646350635
 H        -4.8315780114        2.4409887988       -4.0668139221
 H        -6.5275896243        2.1873598216       -3.3793040740
 H        -4.1369340596        3.7098542596       -2.1481543439
 H        -4.5993679913        2.0587117254       -1.8316632204
 H        -4.8245581784        3.9568233392        3.3226169876
 H        -4.1952499160        2.8448857016        1.9619404218
 H        -6.8112759960        2.2081134075        3.3072831059
 H        -5.2293884969        1.7381294702        3.9279423899
 H        -8.4340591325       -1.9391980855        1.0948775037
 H        -8.0364386951       -0.3392204593        0.6549263127
 H       -10.4012076256       -0.8362267801        2.4902722748
 H       -10.6624900754       -1.1186068434        0.6429239184
 H       -11.6028006521        2.2107902690        4.2258578824
 H       -12.8992446976        3.1764886418        3.5328035468
 H       -11.3598752019        3.9984410245        4.0102874753
 H       -11.4489999044        2.7503913542       -0.4713226437
 H       -13.0472774475        2.5652280900        0.2329514290
 H       -12.4359964994        1.1505683333       -0.5361840221
 H       -13.6845959076        1.1462110911        1.8380824248
 H       -12.4371409168        0.6979482459        3.1082468251
 H       -12.7303377862       -0.2933269829        1.4674600800
 H        -4.6958631801       -1.7410106499        1.6131160719
 H        -6.1988677144       -1.5459752906        0.6697331090
 H        -6.2228587849       -2.7283545480        1.9409163664
 H        -6.4732573213       -1.8343924562        4.4422669866
 H        -5.7726507389       -0.1213833142        4.7446954968
 H        -4.8664257311       -1.4962123565        3.9858151897
 H        -3.4053890271        3.9075852513        0.2428385991
 H        -3.8237898716        5.5060357791        0.9268625562
 H        -3.7637716507        5.4805231430       -0.7411281714
 H        -5.8032668852        6.6627010166        0.4104365282
 H        -7.3481498461        5.8819760241        0.0536382457
 H        -6.2641751045        6.1145350102       -1.2590386009
 H        -5.5752547599        2.7807152601       -6.5980856524
 H        -7.3677403453        2.4776706662       -6.9877109861
 H        -6.6352554753        1.9786493664       -5.5117242435
 H        -7.0798949246        5.1507282331       -7.3581729640
 H        -5.5930219570        5.4284487427       -6.5626284679
 H        -7.0309216675        6.2078276213       -5.9088527716
 H       -13.3086528053        5.3601942866       -3.6695260863
 H       -14.3561331705        6.3553603161       -2.7053430286
 H       -13.4775382170        4.9399654158       -2.0281448278
 H       -12.0363128094        7.2759704404       -4.3035114308
 H       -10.5537950040        7.6807587337       -3.4318855195
 H       -12.0542324531        8.5199037730       -2.9424182421
 H       -14.3152654640        8.9275597234        1.1766136260
 H       -16.0400455961        9.1928604907        1.2456273176
 H       -15.4787935480        8.3100029055       -0.0616968594
 H       -16.3341742811        6.4621563521        3.7541569530
 H       -17.2724833786        7.6544135330        2.7892948468
 H       -15.8324479185        8.0549465694        3.6866855350
 Na       -8.9572883512        3.6817484382        0.3612611850
