117

 C       -17.4244972503        5.0702373973        1.4873920891
 C       -16.3462818573        5.9329313636        0.8835924436
 O       -16.1319578519        5.8801041109       -0.3017606037
 C       -15.4556040477        6.9442278939        1.7115633765
 C       -14.0835750489        6.2524665526        2.1353014939
 O       -14.1158266045        5.2729405131        2.8727969189
 C       -12.7873516812        6.6619188194        1.4452981117
 C       -12.7199779467        6.1609063777        0.0476017441
 C       -12.0089988096        7.0771492007       -1.0000815043
 O       -11.5115162562        8.1362016419       -0.7308155163
 C       -11.8997983862        6.5147979430       -2.4789810178
 C       -10.8621485544        5.3685695795       -2.4248048892
 O       -10.6017054795        4.9588933520       -1.3157796637
 C       -10.4203054624        4.6541529760       -3.6715581414
 C        -9.0102091489        4.9274017571       -4.1598075178
 C        -8.5419075905        3.8043770490       -5.0606624635
 O        -9.3056627934        2.9549201295       -5.4168910345
 C        -7.0108708687        3.8776943338       -5.4983433639
 C        -6.2025622089        3.8490911899       -4.1580072394
 O        -6.0996700214        4.8990937656       -3.5963154353
 C        -5.6841513525        2.5761731767       -3.5167796588
 C        -4.9752738547        2.8858474773       -2.1247823719
 C        -6.0222338868        3.6072742631       -1.1893282393
 O        -7.2197831702        3.4058480794       -1.3885008784
 C        -5.5825241260        4.4819507437        0.0057179593
 C        -6.1298388281        3.9152315632        1.3045983504
 O        -7.2853084155        4.2664977451        1.6928769154
 C        -5.2898072589        3.0724570875        2.1697720445
 C        -5.9097073516        1.9264602595        2.9548083287
 C        -5.9602966573        0.7011339997        2.0558057781
 O        -5.7707422415        0.8673830658        0.8895984288
 C        -6.3299501642       -0.6770610109        2.7653471218
 C        -7.8733114486       -0.6381620341        3.0290290384
 O        -8.3206338213       -0.1121817217        3.9861250669
 C        -8.7711104900       -1.1989897637        1.9067693207
 C       -10.1361837581       -0.5310055129        1.8778225010
 C       -10.1339567114        1.0110928762        1.3959884395
 O        -9.2560458283        1.5909121644        0.7937846454
 C       -11.5203638382        1.7858543599        1.5438356616
 C       -11.3378927796        3.0877957465        2.4593697378
 O       -10.7021965393        4.0184071831        2.0077135207
 C       -12.0486343890        3.0830493628        3.7892480993
 C       -11.9377664108        2.1374315105        0.1097173222
 C       -12.7263661189        0.9374215028        2.0226116884
 C        -5.8061847550       -1.8187541323        1.8157168497
 C        -5.6022578098       -0.8610640597        4.1899367371
 C        -4.0331936789        4.6651758331        0.0277928923
 C        -6.1188984326        5.9453159890       -0.2008435132
 C        -6.6717161451        2.6774376332       -6.3822578983
 C        -6.7902084973        5.2869052360       -6.0787813167
 C       -13.3572816107        6.0308274411       -2.9546765067
 C       -11.3625681915        7.6132995064       -3.3467167912
 C       -15.1886511115        8.1420991695        0.7135145657
 C       -16.2233102660        7.3339681507        3.0577379825
 H       -17.0415612758        4.1062836190        1.7792179816
 H       -18.1918388375        4.8781580621        0.7475424691
 H       -17.7671795073        5.5701727615        2.3974297696
 H       -11.9567191596        6.2911231845        2.0580617469
 H       -12.7379284353        7.7495089862        1.4525931621
 H       -13.7881665243        5.9523716342       -0.3398871732
 H       -12.2892125481        5.1334332470        0.1316059919
 H       -11.1537600544        4.8217602274       -4.5013862889
 H       -10.4694516976        3.5292323911       -3.3975455608
 H        -8.3542757182        5.0685411949       -3.2742436985
 H        -8.8538032907        5.8951764788       -4.7734759681
 H        -4.9757960625        2.0632540784       -4.1611939569
 H        -6.5373259213        1.9518479607       -3.3265139432
 H        -4.0746528464        3.4077895663       -2.3767016429
 H        -4.6446150091        2.0019086238       -1.6487854551
 H        -4.8985640301        3.7115321597        2.9245555991
 H        -4.4825501789        2.6713897573        1.5677879964
 H        -6.8286601769        2.2601851182        3.4088635273
 H        -5.1801024103        1.7093036994        3.7821811703
 H        -8.8461412848       -2.3439913174        2.0029542382
 H        -8.2397667912       -1.0110902267        0.9595619118
 H       -10.4458453632       -0.4673664768        2.9152433358
 H       -10.8051034718       -1.1049994100        1.2409085708
 H       -12.1463101490        2.0276089597        4.1574676557
 H       -13.0333582399        3.4416859348        3.5422591649
 H       -11.6139021858        3.6905498377        4.5583380700
 H       -11.0713630256        2.7513637942       -0.3221820621
 H       -12.8502086483        2.7111648399        0.1392313327
 H       -11.9981578490        1.1824341246       -0.3940878413
 H       -13.5323758388        1.5935592508        2.0690055318
 H       -12.4725853477        0.2996101829        2.8684340957
 H       -13.0371748118        0.2577784917        1.2441935367
 H        -4.7321649013       -1.8555368481        1.9670647359
 H        -6.0364817143       -1.6018537409        0.7914763679
 H        -6.1799408870       -2.8429123938        1.9819641820
 H        -5.4434300764       -1.8802172604        4.3650956130
 H        -6.3073554178       -0.4517878593        4.9502466424
 H        -4.6680566715       -0.3206728261        4.1861648954
 H        -3.6781693457        3.7117274420        0.1586155795
 H        -3.7672645950        5.2625746180        0.9214872697
 H        -3.6283706284        5.1828457040       -0.8212396536
 H        -5.8955680843        6.5892476624        0.6460806326
 H        -7.1954652651        5.9174938041       -0.4110941228
 H        -5.7204411499        6.3829200755       -1.0930405057
 H        -5.6370000288        2.4481478806       -6.3667471246
 H        -7.0543086848        2.8079634672       -7.4424392506
 H        -7.2047617988        1.7974370439       -6.0715638525
 H        -7.2105551355        5.2707065404       -7.0931182856
 H        -5.7383336487        5.4200424735       -6.3772112485
 H        -7.1495710142        6.0584146643       -5.3973212821
 H       -13.4873063053        5.8255238149       -4.0181865699
 H       -14.0848015036        6.8567905504       -2.8123992938
 H       -13.6775680100        5.1511461848       -2.3103919907
 H       -10.9139786857        7.2844366105       -4.2418255903
 H       -10.7519447657        8.2244125898       -2.6875699734
 H       -12.1677500785        8.3326973560       -3.5559075642
 H       -14.9731353032        9.0843077663        1.2307285266
 H       -15.9778679123        8.2977875990       -0.0152183781
 H       -14.3251249328        7.8449526896        0.0671665549
 H       -16.3622951509        6.4145149104        3.6855468895
 H       -17.1706854206        7.8416297991        2.8361355501
 H       -15.6066979158        8.0559506536        3.6168250203
 Na       -8.9539295256        4.0762862088        0.1587728095
