117

 C       -13.1956890435        6.4863301677       -6.5068637722
 C       -11.8340619192        7.0130917868       -6.1955393475
 O       -11.0198461029        6.3787914081       -5.6341272714
 C       -11.4376875490        8.5326759080       -6.7484801740
 C       -10.9299701421        9.4747329943       -5.6187236441
 O       -11.6555773356       10.3147201472       -5.1598636247
 C        -9.5087814841        9.1712639802       -5.0754762131
 C        -9.5399093970        8.9224079989       -3.5044980952
 C        -8.0021470958        8.7109378542       -3.1555316956
 O        -7.1255660885        9.0239394535       -3.9047639978
 C        -7.6383318606        8.0276885396       -1.7242956312
 C        -8.7808362485        6.8765028842       -1.5610705406
 O        -9.8495476214        7.1271314332       -0.9636997108
 C        -8.5704233973        5.5358746550       -2.1916073687
 C        -9.8737391892        4.7390615606       -2.6218621688
 C       -10.4159360433        3.6327352826       -1.6679408137
 O        -9.5843130579        2.9724908793       -1.0813962083
 C       -11.9705134101        3.0459118060       -1.8064526630
 C       -12.3355011629        2.6586845155       -0.3762349116
 O       -11.8548508305        1.6720552528        0.1726489056
 C       -13.1831073022        3.6266525576        0.3870553162
 C       -12.8226844593        4.1143469202        1.8647916235
 C       -11.3264341575        4.1904795616        2.0963413261
 O       -10.5593466612        4.3225087223        1.1605345968
 C       -10.7115483670        4.0721177009        3.6276771500
 C       -10.4206456238        2.6496520644        4.0677733976
 O       -10.7041144756        1.7400910819        3.2912628110
 C       -10.1847015390        2.4017595233        5.5418874110
 C        -9.4372742832        1.1624570790        5.8767550158
 C       -10.3270629493       -0.0836092565        5.8550599472
 O       -11.5027722783       -0.0365677350        5.9947789968
 C        -9.5873752988       -1.4230899882        5.5685416801
 C        -8.7343390716       -1.3933422831        4.1618099486
 O        -7.7451734572       -0.6351907110        4.1154459378
 C        -9.0330858364       -2.2769924600        2.9628701218
 C        -8.2029476663       -2.1932453500        1.7281536519
 C        -8.1830968046       -0.7576857997        1.1256744904
 O        -9.2265065875       -0.1499083617        0.9986573596
 C        -6.7320953960       -0.2382289290        0.6497369825
 C        -6.5395068370        1.1945673212        1.1639672786
 O        -7.4569797660        2.0454510327        1.3841761587
 C        -5.1375829916        1.7661965885        1.4180284426
 C        -5.6224558584       -1.1821551059        1.1799570460
 C        -6.7255157642       -0.1972921144       -0.9329367954
 C        -8.5324810606       -1.5442278506        6.7063660190
 C       -10.5423885320       -2.6187187710        5.5454656793
 C        -9.4400914436        5.0549714881        3.6050897102
 C       -11.7088802595        4.7522446800        4.5772383236
 C       -13.0567622537        3.8440132146       -2.5545380516
 C       -11.6724918569        1.8098542504       -2.8049047282
 C        -6.1883682828        7.5696885561       -1.8692295922
 C        -7.8165457118        9.0284864691       -0.5564334582
 C       -10.3463748222        8.1258385589       -7.8611640859
 C       -12.6146210877        9.1875514755       -7.3896513583
 H       -13.8188516697        6.6697912075       -5.6004684264
 H       -13.1847858033        5.4282825009       -6.6876586486
 H       -13.8273943862        6.8272504095       -7.3091803732
 H        -8.9003031119       10.0131570699       -5.2380532124
 H        -9.0211495485        8.3910721461       -5.7613917865
 H       -10.1810850758        8.1469433844       -3.2702633617
 H        -9.9923552057        9.8380676815       -3.0431866154
 H        -8.0179828207        5.0559063128       -1.4330879355
 H        -7.9532590615        5.7444729183       -3.0931172708
 H        -9.6909587814        4.1527706033       -3.5110804284
 H       -10.6107870343        5.4497120753       -2.7648642443
 H       -14.2165195257        3.3152474267        0.5017198004
 H       -13.2599621131        4.5004665984       -0.1821453857
 H       -13.3740538557        3.6201168087        2.6480476918
 H       -13.3072460317        5.1411636093        1.9678628427
 H       -11.1347407518        2.4705061306        6.0036391225
 H        -9.7279335936        3.2405048405        5.9805176916
 H        -9.2129296733        1.0828050512        6.9399105471
 H        -8.5214918874        1.1602232476        5.3385946343
 H       -10.0969185821       -1.9220657166        2.7812292951
 H        -9.1276215701       -3.2873596014        3.3799558082
 H        -8.7797960446       -2.7223440488        0.9739746750
 H        -7.2999465545       -2.6331312638        1.9540269199
 H        -4.8461047455        1.4822756973        2.4056654336
 H        -5.2019919341        2.9253341334        1.3260839190
 H        -4.4079456876        1.4466061015        0.7338317619
 H        -5.4481557535       -2.0696017324        0.5001961269
 H        -5.6648295347       -1.4148792387        2.2253667859
 H        -4.6545780094       -0.7042090158        1.1193945968
 H        -7.0122785225       -1.2210611869       -1.3242269668
 H        -5.6931123956        0.0601937930       -1.3209551521
 H        -7.5235578260        0.4428068565       -1.2632120871
 H        -8.7831000537       -0.9445304390        7.6066650891
 H        -7.5995430500       -1.1254648900        6.3712465294
 H        -8.2650481355       -2.6533680299        6.9957110319
 H       -11.1235567338       -2.5257379793        6.4390648726
 H       -10.0968483196       -3.5536830885        5.4527839731
 H       -11.1775479163       -2.4326597719        4.7261862264
 H        -9.7391462947        5.9531288291        3.0431414447
 H        -8.5562384653        4.7165918596        3.1070818735
 H        -9.2327595386        5.4664144815        4.5315188337
 H       -11.6162536596        5.7704451957        4.4681318048
 H       -11.5096825986        4.3998059888        5.5897931678
 H       -12.7786581843        4.4095395155        4.4762688794
 H       -14.0175129169        3.3910347527       -2.4292375297
 H       -12.7888736737        3.7750739734       -3.6758745854
 H       -13.0470505717        4.8783443554       -2.3646594458
 H       -12.5237079384        1.1642963015       -2.5819745603
 H       -10.6828738591        1.3988815623       -2.5198329400
 H       -11.5973830929        2.0946900907       -3.8375248145
 H        -5.5854918296        8.4179491078       -2.1813088412
 H        -6.1299316243        6.8716257283       -2.7180957742
 H        -5.8147150817        7.1674225133       -0.9228041214
 H        -7.1132541455        9.8481015473       -0.4893699772
 H        -7.6283366601        8.3652983139        0.3104116091
 H        -8.8536701741        9.4147415581       -0.5554896983
 H        -9.7776112456        7.3528985721       -7.3724884896
 H        -9.7770262330        9.0835256963       -7.9640036036
 H       -10.7878444554        7.8790753491       -8.7598431449
 H       -13.2899566825        9.5435537894       -6.6647805492
 H       -13.2500478653        8.5324820664       -8.0053907635
 H       -12.2978156672       10.0879752137       -8.0333556799
 Na       -9.8329971891        1.9279162613        1.0791979710
