117

 C       -17.2926006800        4.9470782636        1.6182895902
 C       -16.2688836114        5.8715731224        0.8743102098
 O       -15.9766301928        5.6754252696       -0.3139872952
 C       -15.5218660783        6.9726605415        1.6724678323
 C       -14.1720699311        6.2214612704        2.0284714750
 O       -14.1468648625        5.3300580915        2.8466081022
 C       -12.8569017945        6.7023133513        1.3699504727
 C       -12.8942855108        6.2768603176       -0.1754470598
 C       -11.9774536724        7.1356021462       -0.9443986137
 O       -11.4043964902        8.1411332518       -0.5515474988
 C       -11.7731256745        6.5431394722       -2.5108272119
 C       -10.8162496772        5.3144516783       -2.4514030949
 O       -10.3828909843        5.0046779391       -1.3467582344
 C       -10.6308960505        4.5325425162       -3.7590973357
 C        -9.1867868394        4.8321754428       -4.0973329684
 C        -8.5623062703        3.8083044318       -5.0529798231
 O        -9.2365224509        2.8303540348       -5.4516077905
 C        -6.9592746084        3.8886556230       -5.4568541657
 C        -6.3165837972        3.8150433686       -4.0728598361
 O        -6.1896927669        4.8052118150       -3.3338776771
 C        -5.8548720280        2.4752353840       -3.4913614428
 C        -5.2572689066        2.7168063610       -2.0975600592
 C        -6.1199034054        3.5585346356       -1.2269005772
 O        -7.3329067857        3.5172605513       -1.3250530843
 C        -5.4983330809        4.4986455413       -0.0875500257
 C        -6.0873877300        3.9411548184        1.1668950041
 O        -7.2342840557        3.9351834881        1.4405947064
 C        -5.2171865073        3.1960364772        2.2085705306
 C        -6.0107830125        2.0228805537        2.8455522748
 C        -5.9321268949        0.6821059626        2.1016051785
 O        -5.9109379843        0.6076609877        0.8790999553
 C        -6.2284660202       -0.6895666939        2.9262920179
 C        -7.7885878645       -0.4496158263        3.0999266548
 O        -8.1376887730        0.1594067057        4.1086945410
 C        -8.8304330262       -1.0177700955        2.0345881434
 C       -10.2722185581       -0.3822261879        2.0672271947
 C       -10.2346600875        1.0519417817        1.3874238903
 O        -9.2051683581        1.5239791629        0.9128767840
 C       -11.6000449079        1.8613567295        1.5226427107
 C       -11.2914724729        3.0826343264        2.4419658265
 O       -10.5379358525        3.9573306005        2.0003693835
 C       -11.9960636028        3.2807780046        3.7703585511
 C       -11.9367442437        2.5123083684        0.1195370591
 C       -12.7518530521        0.9555705283        2.0300108353
 C        -5.9331688275       -1.8713032341        2.0164281583
 C        -5.4199408828       -0.7163103692        4.2220143489
 C        -3.9626175792        4.6169256025       -0.0395536363
 C        -6.0810572439        5.9248606198       -0.3916991635
 C        -6.7467558080        2.6973383050       -6.3140058054
 C        -6.6009423393        5.1256055870       -6.3028142290
 C       -13.0680340163        6.0565394773       -3.2176558135
 C       -11.1848516202        7.6250050787       -3.3888157369
 C       -15.3363726985        8.3333316848        0.8319248835
 C       -16.1632369716        7.4267128878        2.9891891067
 H       -17.1388831452        3.8827671595        1.3007262624
 H       -18.3384957363        5.1611752890        1.2387935014
 H       -17.1631248187        4.9966363124        2.6769354857
 H       -12.0234059003        6.1910853783        1.8889469603
 H       -12.6891351065        7.8108111020        1.4813674557
 H       -13.8456037043        6.4022340405       -0.6375723254
 H       -12.6663850722        5.2160082110       -0.2581568177
 H       -11.2222080335        4.8341892204       -4.5870332539
 H       -10.8489784974        3.5559794734       -3.5708972687
 H        -8.5986804083        4.7058693555       -3.1647315212
 H        -9.0313343055        5.8469814643       -4.3340622357
 H        -5.2030355724        1.9047178970       -4.2013048322
 H        -6.7117086907        1.8391265639       -3.1680735181
 H        -4.2229825721        3.1085974519       -2.1733507077
 H        -5.1380681852        1.7265857120       -1.5595810523
 H        -4.9903647525        3.9335808852        3.0317646713
 H        -4.2361162168        2.8442168496        1.8497491561
 H        -7.0645699356        2.3561624222        2.8501085139
 H        -5.7627395141        1.8729871438        3.8731419729
 H        -8.8556449414       -2.0341867327        2.2896726712
 H        -8.5077276836       -0.9970217404        1.0001057325
 H       -10.6974585845       -0.2827924309        3.0880027973
 H       -10.8395400424       -1.0832722120        1.4340833644
 H       -11.9652880754        2.4604827416        4.4422787615
 H       -13.0176940020        3.7131739663        3.6353913089
 H       -11.3755291657        4.0685399099        4.2700545763
 H       -11.3876875396        3.3407219352       -0.0249651427
 H       -12.9915045102        2.7751496007        0.2511342411
 H       -11.7590703004        1.7781130445       -0.6745829321
 H       -13.7295828090        1.5108008574        1.7757089177
 H       -12.5956457599        0.6771842897        3.0652870903
 H       -12.7553557668       -0.0498228886        1.5731550260
 H        -4.8478372021       -2.0590944650        1.8275984003
 H        -6.4829298210       -1.7303437450        1.0337614664
 H        -6.3003914526       -2.8104233229        2.4252211342
 H        -5.1394650306       -1.7578253659        4.5045820699
 H        -5.9791040007       -0.2847085431        4.9957873546
 H        -4.5301228566       -0.1008116664        3.9614303722
 H        -3.4861262178        3.5500337725       -0.1195236182
 H        -3.6303573191        5.1224565456        0.8495961150
 H        -3.6872331178        5.1535457767       -0.9642983391
 H        -6.0018859579        6.5480370131        0.4899026934
 H        -7.1085107267        5.8012817409       -0.7359736965
 H        -5.5373388360        6.4906137684       -1.1819458153
 H        -5.7064611173        2.6589037452       -6.7507138238
 H        -7.4325382047        2.7423847644       -7.0837509173
 H        -6.9460763095        1.7143743774       -5.8198169866
 H        -7.4449681530        5.6142450922       -6.7527082207
 H        -6.0535965537        4.8449176185       -7.1723291952
 H        -6.0495948594        5.7809578146       -5.6636704335
 H       -12.9245844869        6.2177338455       -4.3042815666
 H       -13.8891742462        6.7365679950       -3.0705118366
 H       -13.3971669494        5.0750907057       -3.0248583617
 H       -10.8275687120        7.1274385820       -4.3290093906
 H       -10.4173396210        8.1609371292       -2.7786422118
 H       -11.9002594026        8.4080498767       -3.6866833976
 H       -14.8475600539        9.0517830209        1.5185773889
 H       -16.3984374844        8.7380840122        0.7192846302
 H       -14.8541495986        8.3175957691       -0.1464069146
 H       -16.2153012143        6.5667569642        3.6071231503
 H       -17.1611917044        7.8539170767        2.8459017700
 H       -15.5553751772        8.2291313678        3.3969451847
 Na       -9.1667113001        3.8261626189        0.1426515294
