117

 C       -17.0426665188        4.6174521093        1.6503395511
 C       -16.4574395827        5.7820813776        0.8588984897
 O       -16.5322402593        5.8399991400       -0.3440471941
 C       -15.6769261556        6.9270258320        1.7067187817
 C       -14.1909387419        6.4679516291        1.9785041873
 O       -13.8899698972        5.7625272631        2.9527320149
 C       -13.0327901725        6.8991803115        1.0512738919
 C       -12.9792691016        6.5723256228       -0.4017104534
 C       -11.8200512695        7.2549678329       -1.1602105506
 O       -11.3137070816        8.2479835710       -0.6680904151
 C       -11.5013942166        6.7373138247       -2.6200537867
 C       -10.7931441415        5.4090087249       -2.5728475814
 O       -10.5773262160        5.0047639220       -1.3903628118
 C       -10.3813679896        4.5499097506       -3.7747389305
 C        -8.8419557420        4.5400263045       -4.0223142470
 C        -8.4413721809        3.4862827645       -5.0759435945
 O        -9.2561928649        2.6206840986       -5.4264008893
 C        -6.9002016368        3.5666204006       -5.6367058870
 C        -6.0197406212        3.3777580672       -4.3862753107
 O        -5.4487927149        4.3862701787       -3.9484799862
 C        -6.0212200042        2.0505943449       -3.6618583966
 C        -5.4564422623        2.1950111797       -2.2182832463
 C        -6.2900058712        3.1145356526       -1.3976508450
 O        -7.4507124320        3.1193350869       -1.6417878927
 C        -5.6834636742        4.1459080162       -0.3834186858
 C        -6.0545044308        3.6438707826        1.0615842492
 O        -7.1840722988        3.6552494894        1.4815356032
 C        -4.9458739468        3.2893294027        2.0405215456
 C        -5.3326809716        2.1681056584        3.0867280692
 C        -5.6554348860        0.8126511531        2.4204523516
 O        -5.4671972337        0.7661357538        1.2005792670
 C        -6.3078776487       -0.3951427859        3.1418600192
 C        -7.8644134973       -0.0755969551        3.3897243703
 O        -8.1349511711        0.7010389052        4.3658728810
 C        -9.0635651436       -0.8180148549        2.6414085502
 C       -10.4282522871       -0.0863488375        2.6156954337
 C       -10.4813784764        1.0589238191        1.6309289634
 O        -9.6221300761        1.3096764438        0.7890243970
 C       -11.7597344205        1.9946950928        1.7179778845
 C       -11.2537175039        3.3506175631        2.4648169844
 O       -10.5542141818        4.0774644921        1.7829752145
 C       -11.6336355849        3.8313888505        3.8113581109
 C       -12.3959078150        2.4847807793        0.3569066152
 C       -12.8706157381        1.2553008382        2.5478660075
 C        -6.1780557321       -1.6255376406        2.2245164484
 C        -5.5689097569       -0.6873876417        4.4873610233
 C        -4.2128808499        4.5592872567       -0.5515353763
 C        -6.5235792280        5.4716566200       -0.6804516692
 C        -6.8838337777        2.4545001948       -6.6227925695
 C        -6.5756111114        4.9660772566       -6.1712936172
 C       -12.8618688356        6.6401850112       -3.4321256837
 C       -10.6193068508        7.8064158728       -3.2408933335
 C       -15.8297056809        8.2668972482        0.8676838679
 C       -16.3133241327        7.1353830489        3.1160077383
 H       -17.6197573342        4.0398318987        0.9503222864
 H       -17.5816927097        4.9535895624        2.4806648483
 H       -16.2110297062        3.9056171404        1.9553776864
 H       -12.0644996562        6.7166346061        1.4899968860
 H       -13.0903118691        7.9757870639        1.0829645338
 H       -13.9447373254        6.8585705574       -0.8332183463
 H       -12.9024185286        5.5366055360       -0.5935717533
 H       -10.9375788653        4.8009237858       -4.6563000984
 H       -10.6694378633        3.4856723170       -3.5294795288
 H        -8.3152629022        4.3428104243       -3.1682989540
 H        -8.4825997880        5.4879274258       -4.3178671164
 H        -5.3983778336        1.3582735961       -4.1467796952
 H        -7.0227861424        1.5405483356       -3.6822647377
 H        -4.3639561472        2.3883473918       -2.3746884388
 H        -5.5041255596        1.1767679575       -1.7582915421
 H        -4.6248049505        4.1767576741        2.6491372275
 H        -3.9930292985        3.0692220830        1.5190153560
 H        -6.2542275452        2.5442802418        3.6572012884
 H        -4.6201954854        1.9868584222        3.9348467038
 H        -9.1665000246       -1.8196594205        3.0992808989
 H        -8.8120515930       -1.0558423743        1.5639176786
 H       -10.7359027720        0.2347239160        3.6199171671
 H       -11.2088767094       -0.8040833557        2.3075992690
 H       -11.7422365840        3.0896878372        4.6021911181
 H       -12.4533476860        4.5461328693        3.6427055765
 H       -10.8429653001        4.5235356157        4.1049564500
 H       -11.6097716134        2.7495520056       -0.2448041138
 H       -13.0531228546        3.3469027692        0.6040326157
 H       -13.0460266664        1.7169991560       -0.0891740151
 H       -13.8202753047        1.7179383869        2.6678094162
 H       -12.6111015622        1.3112205717        3.6191528254
 H       -13.0222949694        0.2073529460        2.1592324926
 H        -5.1438659604       -1.8555781001        1.9953592664
 H        -6.4691030166       -1.3517091657        1.2485124914
 H        -6.6498581982       -2.5966895923        2.5278811311
 H        -5.9000064953       -1.7130478525        4.7765942011
 H        -5.8808148677        0.0528829763        5.2847928873
 H        -4.5226199836       -0.7168967931        4.3740339271
 H        -3.5607035835        3.6833524535       -0.5689939800
 H        -3.9064833378        5.1338548847        0.3589152976
 H        -4.0125027124        5.0917475580       -1.5435526136
 H        -6.3984757678        6.2255925938        0.1514265461
 H        -7.5784789471        5.2971478467       -0.7185119653
 H        -6.1269948649        5.9198349747       -1.5856108676
 H        -5.9654952178        2.3924599273       -7.2000283637
 H        -7.6788820244        2.5506736374       -7.4065823497
 H        -6.9937733910        1.5474952530       -6.0494063375
 H        -6.6554139371        5.0456321230       -7.2164748418
 H        -5.6225084169        5.1963260098       -5.7717821039
 H        -7.2317210536        5.7517375887       -5.8143204410
 H       -12.7735917898        6.5256941106       -4.4506863957
 H       -13.4724871198        7.4851274188       -3.1791595762
 H       -13.5090895453        5.8177211460       -3.1778413291
 H        -9.8991728021        7.4171944820       -4.0388370721
 H       -10.0057506790        8.0775877196       -2.4082558955
 H       -11.2541196389        8.6017178445       -3.5856387653
 H       -14.9913083696        8.3647037343        0.1643454184
 H       -15.8086480355        9.0303161448        1.5889628782
 H       -16.7400235262        8.1813028135        0.2981796891
 H       -16.2472908562        6.2522795949        3.7716395412
 H       -17.3283165692        7.3915462426        2.9297476858
 H       -15.7747613543        7.9382103922        3.6026353583
 Na       -9.0096205044        3.8738279977        0.1794213037
