117

 C       -16.9472506443        4.5752632482        1.6652360768
 C       -16.4264258310        5.7826904546        0.8599795028
 O       -16.6516339191        5.9341677748       -0.3584410747
 C       -15.7044089835        6.8917010016        1.6724879356
 C       -14.1595194455        6.5336985190        1.8754293276
 O       -13.8564118628        5.8188811708        2.8003155520
 C       -12.9488982312        6.9852082885        0.9753068179
 C       -12.9800733367        6.5317477547       -0.4205766561
 C       -11.8858956733        7.3126457208       -1.1974352609
 O       -11.3264586963        8.2468121110       -0.7032361407
 C       -11.4882916733        6.8295589314       -2.5825626941
 C       -10.7643637359        5.3280857980       -2.4516129171
 O       -10.5157047242        4.8145325210       -1.3524833556
 C       -10.3354164845        4.6358773505       -3.7353051714
 C        -8.8255928754        4.5847994953       -3.9478808130
 C        -8.4457195331        3.5780834337       -5.0415227046
 O        -9.2321132078        2.6782951842       -5.2961495194
 C        -7.0021034010        3.5388757596       -5.6707740029
 C        -6.0157565338        3.3371939555       -4.3707149426
 O        -5.2885479327        4.2228626862       -3.9547207226
 C        -5.9322279239        1.9362443941       -3.6850883416
 C        -5.3640179260        2.1071484629       -2.2288624074
 C        -6.3251531887        3.0063221983       -1.4302527604
 O        -7.5266004656        2.8741950264       -1.5021838165
 C        -5.7153597412        4.1247589435       -0.3895141395
 C        -6.0085932942        3.6259235378        1.0379588960
 O        -7.1522621460        3.4493225664        1.4261992803
 C        -4.8859498405        3.2839356605        2.0547544567
 C        -5.4035821118        2.2979275696        3.0767657558
 C        -5.6515202144        0.9315795775        2.3402984223
 O        -5.4384593286        0.7727765433        1.1747723316
 C        -6.3604607058       -0.3306043743        3.1486242686
 C        -7.8631360546        0.0454808042        3.4296464733
 O        -8.1623721121        0.8532273811        4.2649435026
 C        -8.9244459335       -0.6465833220        2.5937763924
 C       -10.3309827117       -0.0334380478        2.6343076668
 C       -10.5415386384        1.1721164756        1.6777932303
 O        -9.6396316157        1.4194576910        0.8736209465
 C       -11.7953251974        2.0899267224        1.8438582181
 C       -11.2604788329        3.4498985440        2.4064425307
 O       -10.5681723279        4.1800131074        1.7070942862
 C       -11.6330817978        3.7967182943        3.8461953618
 C       -12.4271077245        2.3593969083        0.4803756383
 C       -12.8731874324        1.3923577054        2.7433462459
 C        -6.2808613592       -1.6501597317        2.2674027433
 C        -5.6477364585       -0.6054385002        4.5181550450
 C        -4.2595554804        4.4281973263       -0.6393226585
 C        -6.5474613362        5.4582660109       -0.5510623795
 C        -6.9186932894        2.4169166042       -6.7873745788
 C        -6.6613043695        4.9160553141       -6.3326192442
 C       -12.8125133554        6.6884905898       -3.3802398741
 C       -10.4922764264        7.8355601291       -3.3372992695
 C       -15.9569291183        8.2501308306        0.9262203308
 C       -16.3973308672        7.0750664840        3.0869943142
 H       -17.3020320407        3.8331324186        0.9666154450
 H       -17.7447946041        4.9790308404        2.2989229353
 H       -16.2205450471        4.1167124689        2.2639401922
 H       -12.0577833872        6.5259934481        1.3584066960
 H       -12.7458894492        8.0094123553        1.0721396489
 H       -14.0146916190        6.6523355147       -0.8643665408
 H       -12.7926165198        5.4858117820       -0.4728822897
 H       -10.8226164213        5.0892354531       -4.6564655255
 H       -10.7651536578        3.5938005272       -3.6566543907
 H        -8.2199997237        4.2427500654       -3.0603388704
 H        -8.4768111135        5.6047921226       -4.1147899407
 H        -5.5075342739        1.1894707035       -4.2855089843
 H        -6.9218361015        1.5237143621       -3.4260233306
 H        -4.3417869396        2.4281914072       -2.1996949868
 H        -5.4153710076        1.1301798239       -1.7855387715
 H        -4.5200089163        4.1802127019        2.5935327484
 H        -3.9779245600        2.9297791529        1.6325339793
 H        -6.3035092332        2.7108920223        3.6477401965
 H        -4.7354929939        2.0135991808        3.8828295543
 H        -8.9622461985       -1.6989132459        2.9161361375
 H        -8.6863405261       -0.7705073329        1.4483753425
 H       -10.5372040809        0.2859235682        3.6666773339
 H       -11.0520193285       -0.8359954089        2.4722699085
 H       -11.7393951202        2.9539493105        4.4613443941
 H       -12.4824274259        4.5206625110        3.8228656747
 H       -10.8274915909        4.4168510684        4.2921056964
 H       -11.5917978573        2.5549626281       -0.1516783353
 H       -13.1490571288        3.1881423631        0.5139970635
 H       -12.9594733812        1.4588424280        0.1672402321
 H       -13.7363874281        2.0225350132        3.0622264779
 H       -12.5343964774        1.1698192708        3.7061977745
 H       -13.3022640001        0.5630905166        2.2089659079
 H        -5.2994943849       -1.9337215772        1.9541633759
 H        -6.7520744505       -1.5000735017        1.3013654444
 H        -6.7125519295       -2.4975534507        2.7250983045
 H        -6.0550472564       -1.5525896724        4.9739376467
 H        -5.8280717346        0.2148044727        5.1467405791
 H        -4.5594231085       -0.7602182878        4.3739920454
 H        -3.6163766764        3.5746771182       -0.1935184143
 H        -3.9764017624        5.2918402073       -0.0925964294
 H        -4.0027537929        4.5301284353       -1.6987819149
 H        -6.4696412731        6.1103953673        0.3245580412
 H        -7.5944982549        5.2213201628       -0.5519498722
 H        -6.2326505666        6.0035263061       -1.4623589277
 H        -5.9636298795        2.7000973410       -7.2807405210
 H        -7.6355277106        2.4255924148       -7.5111944424
 H        -6.7615695741        1.4016470579       -6.3784691258
 H        -6.4869820062        4.7304557857       -7.3717448021
 H        -5.7990942946        5.2975510869       -5.8263394285
 H        -7.4161426686        5.6911391116       -6.3929551824
 H       -12.6699650538        6.6843445888       -4.4645089653
 H       -13.5048354269        7.4801643901       -3.1444080569
 H       -13.3786865663        5.8357311547       -3.2167324202
 H        -9.8300228834        7.2808500524       -4.0116590818
 H        -9.8471907853        8.1487393903       -2.5497929033
 H       -11.0429149096        8.5944341959       -3.8150485011
 H       -15.5334187156        8.3224892043       -0.0472909245
 H       -15.5159864989        8.9509272132        1.6400075244
 H       -16.9907386918        8.3117264240        0.9118923919
 H       -16.0895868096        6.2987116005        3.7488748617
 H       -17.4618423063        7.0859150874        2.9267727341
 H       -16.0266352214        7.9797672003        3.5478969838
 Na       -9.0459092818        3.7183095760        0.1368876383
