117

 C       -16.6733421004        4.4805754691        1.5175918198
 C       -16.4168390402        5.8037942703        0.8343130567
 O       -16.6997363756        5.9640369954       -0.3208513195
 C       -15.7874226358        6.9366676473        1.7291306863
 C       -14.2593837413        6.5515987502        1.8561427530
 O       -13.9801567839        5.6586655930        2.6543961582
 C       -13.2172324400        7.2602016775        1.0707294412
 C       -12.9996188695        6.6340743778       -0.4076454045
 C       -11.8431325446        7.3315423748       -1.1503317712
 O       -11.2709484063        8.3423596543       -0.7726983880
 C       -11.4205198178        6.7667243107       -2.6356046545
 C       -10.7041387308        5.4071366728       -2.5040069336
 O       -10.5205561304        4.9211562838       -1.3852014023
 C       -10.2005772430        4.7224794734       -3.8015255438
 C        -8.6437309081        4.5898793671       -3.9293870346
 C        -8.3512167106        3.5155094208       -4.9748320739
 O        -9.2109739157        2.6718373863       -5.1950117677
 C        -7.0271864140        3.4883182565       -5.6828429293
 C        -5.9023586460        3.2528453259       -4.4634079979
 O        -5.1357725342        4.1418078988       -4.1205701988
 C        -5.9814030361        1.9312922024       -3.7564570425
 C        -5.4467775350        2.0124669826       -2.3363865655
 C        -6.3611980019        2.8688915991       -1.3890464677
 O        -7.5178109129        2.5116482344       -1.2832127093
 C        -5.7467332328        3.9260969686       -0.4299112739
 C        -6.0349242765        3.4041069021        1.0288279772
 O        -7.1887649384        3.2443879677        1.3126323696
 C        -4.9541006731        3.2699074181        2.0455256703
 C        -5.3532155184        2.2197589940        3.0991573777
 C        -5.6754109963        0.8697732540        2.3294602090
 O        -5.4518414888        0.7644893158        1.1021876977
 C        -6.3237794611       -0.2245565648        3.1625366426
 C        -7.8089785753        0.2652691542        3.2445627426
 O        -8.1514347705        1.1660089638        4.0587539479
 C        -8.9283012622       -0.3959664794        2.4399589027
 C       -10.3237236576        0.1267859807        2.7679099442
 C       -10.5840367758        1.3321210658        1.8694616559
 O        -9.7194302135        1.5480487891        1.0365198171
 C       -11.8725690125        2.2118756298        2.0279226587
 C       -11.3317620699        3.5685411465        2.5128400904
 O       -10.6883013873        4.3021228086        1.7906415533
 C       -11.5150798916        4.0636928806        3.9736231855
 C       -12.4214645161        2.2096496183        0.5458639619
 C       -12.9025539529        1.6500408711        3.0006474677
 C        -6.1630116272       -1.5541519070        2.3556210305
 C        -5.7220000063       -0.2779750165        4.6024413392
 C        -4.2413218268        4.2727813696       -0.7770070614
 C        -6.4962681793        5.2812447960       -0.5572358464
 C        -6.9615037845        2.2636209423       -6.5873073550
 C        -6.7975269406        4.8320551350       -6.2729698452
 C       -12.6384689606        6.5239159303       -3.5586535123
 C       -10.3757425196        7.7519436158       -3.2363007065
 C       -15.8893586848        8.3661221572        0.9107137640
 C       -16.3873920389        6.9950271607        3.1571818746
 H       -16.2613675760        3.6609196404        0.9181633511
 H       -17.7133447355        4.3921528999        1.7247577794
 H       -16.1508969674        4.5104933139        2.5393881919
 H       -12.2225271370        7.2001132762        1.5670336278
 H       -13.4521007519        8.3750116141        1.0900132151
 H       -13.8827130342        6.7917069207       -1.0043200454
 H       -12.8366100142        5.5054874507       -0.4295952837
 H       -10.5843648340        5.2342874082       -4.6544022675
 H       -10.6383396417        3.7279615128       -3.8175595890
 H        -8.1267001862        4.3370975839       -2.9694417450
 H        -8.2247216766        5.6213540601       -4.1895940830
 H        -5.5353206421        1.1129834012       -4.3981296110
 H        -7.0181366049        1.5794280749       -3.6591805731
 H        -4.4376647424        2.4244217768       -2.4458555555
 H        -5.3738661303        0.9914998778       -1.9469442706
 H        -4.6441593932        4.2305752795        2.4028893753
 H        -4.0302037645        2.8766282021        1.5765199830
 H        -6.2436053327        2.4551200373        3.6046791473
 H        -4.6180260663        2.0347146935        3.8744013210
 H        -8.8313145225       -1.4761268335        2.5283135503
 H        -8.8637022498       -0.2457672069        1.4210166388
 H       -10.4727746963        0.4037351258        3.8208142353
 H       -11.1582935318       -0.5943442823        2.6367083887
 H       -11.2964864697        3.1776471174        4.6199833216
 H       -12.5277227821        4.3978135302        4.0776072682
 H       -10.9143238954        4.8713115827        4.3307780462
 H       -11.7418316532        2.7347816035       -0.1040088085
 H       -13.4418909502        2.6283755761        0.4914537341
 H       -12.4705993804        1.1403632167        0.2732145831
 H       -13.7037610748        2.2638069096        3.2980686724
 H       -12.4390725622        1.3119574268        3.9574883546
 H       -13.4729691991        0.8342290038        2.5410553268
 H        -5.1213117198       -1.8841250114        2.3429906889
 H        -6.4870637968       -1.4612485890        1.3334376081
 H        -6.7769258233       -2.4140701763        2.7500992703
 H        -6.1874041712       -1.0148434556        5.2038273751
 H        -5.8511324721        0.7461662365        5.0495951690
 H        -4.6960648454       -0.5265370503        4.5620406668
 H        -3.5800626513        3.4911482784       -0.7740516144
 H        -3.8230846735        5.0730724946       -0.1256923121
 H        -4.2310425393        4.8248528879       -1.7362755516
 H        -6.1225902759        5.9595977706        0.2213950875
 H        -7.5550223863        5.2213923126       -0.3161182010
 H        -6.3408784575        5.6362020089       -1.5524087306
 H        -5.9964542618        2.1617986967       -7.0384064357
 H        -7.7516898380        2.3657393360       -7.4140928069
 H        -7.2061591393        1.3832814079       -6.0390189453
 H        -6.0491206409        4.7635124690       -7.0927971773
 H        -6.4402941816        5.4896979222       -5.4473628366
 H        -7.6301087656        5.2834294248       -6.8306203759
 H       -12.3996534735        6.1348435037       -4.5543386012
 H       -13.2380512729        7.4292810585       -3.8079179162
 H       -13.4156324290        5.7998953562       -3.1099450015
 H       -10.0761791361        7.3174677963       -4.2036385635
 H        -9.5023827801        7.8051852478       -2.5954413800
 H       -10.9541765809        8.6736040988       -3.3314853368
 H       -16.1383162500        8.0628845723       -0.1237540123
 H       -14.9645159345        8.8730355349        0.9022661028
 H       -16.7053602464        8.9326802148        1.4134995500
 H       -15.8869150795        6.2301747127        3.7801041528
 H       -17.4746513989        6.9632062752        3.1400466730
 H       -16.0270398199        7.9145230916        3.6132722934
 Na       -9.2591571439        3.3275498297       -0.0859206305
