117

 C       -16.5247706196        4.3848109143        1.4699703220
 C       -16.4348670391        5.8108453595        0.8590543927
 O       -16.6529058247        6.0085128698       -0.3467664486
 C       -15.7915300521        6.9547341665        1.7345763397
 C       -14.2540708521        6.5727440211        1.8242841045
 O       -13.9921221451        5.5648605225        2.4673144336
 C       -13.0993674130        7.2929669126        1.0475748134
 C       -13.0063919662        6.7314040992       -0.3576164257
 C       -11.8964210156        7.3723084930       -1.2345840237
 O       -11.2690954490        8.2857014822       -0.7976099157
 C       -11.4461847481        6.7946532807       -2.6749283035
 C       -10.6130143376        5.4622121851       -2.4823643282
 O       -10.4420963052        4.9104566004       -1.3582205537
 C       -10.1589059780        4.7031457447       -3.7209776621
 C        -8.6240688081        4.5347069323       -3.8729667710
 C        -8.3865614749        3.4252046616       -4.8969721810
 O        -9.2355891747        2.5701153906       -5.1670148395
 C        -6.9631128837        3.4529458410       -5.6119230764
 C        -5.9161503444        3.2782564900       -4.4496499994
 O        -5.1035663659        4.1681240552       -4.2633027337
 C        -6.0225200063        1.9513919548       -3.7305753788
 C        -5.3967762715        1.9131241250       -2.3540308632
 C        -6.3213417355        2.6659010410       -1.3722717007
 O        -7.4855431833        2.4424574252       -1.4083760287
 C        -5.7646003319        3.8913545652       -0.5348969044
 C        -6.0925765901        3.4381535265        0.9667353730
 O        -7.2322789770        3.2124597219        1.2927372842
 C        -4.9298660543        3.3146899871        1.9751165014
 C        -5.1713778524        2.2234553818        2.9853692630
 C        -5.5989499122        0.8924465260        2.3459690591
 O        -5.4777730419        0.7791111564        1.1541141451
 C        -6.2983265994       -0.1887720788        3.2084330934
 C        -7.8132255014        0.2400962468        3.2870462378
 O        -8.0545607487        1.2828072615        3.9031346999
 C        -8.9613894990       -0.5358166066        2.5454122470
 C       -10.3394673264        0.1008389165        2.8423599256
 C       -10.6437643214        1.3145590250        2.0066307041
 O        -9.8741970736        1.5787968643        1.0814306552
 C       -11.9070540105        2.2272257983        2.1296061810
 C       -11.3318503142        3.7373440534        2.4990293178
 O       -10.6414900705        4.3461833623        1.7071587946
 C       -11.4940937630        4.2052004515        3.9712452671
 C       -12.5000092590        2.3615303703        0.6880822277
 C       -12.9022923846        1.6398167583        3.0542584297
 C        -6.1155199080       -1.5756077421        2.4975559306
 C        -5.7807593619       -0.2134439487        4.6200712755
 C        -4.2523927338        4.1503111102       -0.6776281317
 C        -6.5551969576        5.1958898209       -0.7127422421
 C        -6.9551805584        2.1716224026       -6.5861058271
 C        -6.6738564525        4.8126655347       -6.2764178449
 C       -12.6441481662        6.5532102726       -3.5437882595
 C       -10.3828649743        7.8462948929       -3.1946371158
 C       -16.0771415288        8.3418268240        1.0115807472
 C       -16.4398668921        7.1449787453        3.1395027447
 H       -15.9413017200        3.7466803449        0.7655317115
 H       -17.5544374518        4.0452379551        1.5737239222
 H       -16.0570128886        4.3438996396        2.4826747394
 H       -12.1073438542        7.0789334373        1.5371466892
 H       -13.2204119544        8.3945272864        1.1122161276
 H       -14.0278614216        6.6749027097       -0.7843716759
 H       -12.6717520390        5.7162639402       -0.3286230006
 H       -10.6040060121        5.1421780871       -4.5560544639
 H       -10.5308136208        3.6802151868       -3.6466357383
 H        -8.2298911174        4.2911006621       -2.9394197582
 H        -8.1451054617        5.4304891183       -4.1669659478
 H        -5.6316213338        1.1758572980       -4.3445185506
 H        -7.1200713061        1.5989177484       -3.5893140492
 H        -4.3185273369        2.2270503996       -2.4836251366
 H        -5.4322246393        0.8253171901       -2.0577756456
 H        -4.9144729193        4.2906512978        2.5577574336
 H        -3.8992606028        3.2158484130        1.6267248862
 H        -6.0933345525        2.4763372615        3.6107792104
 H        -4.3624122857        2.1104455476        3.6938638939
 H        -8.9490540556       -1.5555106291        2.8227168762
 H        -8.8383568532       -0.5592995138        1.4310901959
 H       -10.4387087898        0.3090141004        3.9133266040
 H       -11.2509155007       -0.5101345249        2.7222462672
 H       -11.0461153886        3.4462631286        4.5659688859
 H       -12.5663008599        4.3448251186        4.1885857264
 H       -11.0371950034        5.1699101735        4.2454146355
 H       -12.0331912236        3.0810296584        0.1227604093
 H       -13.5581623553        2.6928625070        0.8788606156
 H       -12.5115177453        1.3708720527        0.1920140920
 H       -13.9148859793        2.0594045041        3.0780546601
 H       -12.4928355063        1.6271887926        4.0829585198
 H       -13.2258900238        0.5973244802        2.7781306578
 H        -5.0469465994       -1.8834650535        2.6018666609
 H        -6.3741745298       -1.5333606818        1.4294937443
 H        -6.7526473508       -2.4419895559        2.8551354645
 H        -6.1696709266       -1.1580462262        5.0912347506
 H        -6.0763068463        0.6723387615        5.1656454378
 H        -4.7311070786       -0.3289159566        4.6294774325
 H        -3.6123569698        3.2314287819       -0.7788774009
 H        -3.8350901852        4.7638288310        0.0759296467
 H        -4.0970047871        4.8617835000       -1.4933054631
 H        -6.1539876168        5.9814243065       -0.0328284373
 H        -7.5248835819        5.0264350769       -0.3187869009
 H        -6.6551679299        5.4665027602       -1.7557413111
 H        -5.9920496532        1.8118748592       -7.0397801275
 H        -7.6035922639        2.5253933848       -7.3442737750
 H        -7.5157918491        1.3248589891       -6.1503980006
 H        -5.7169614964        4.9160955037       -6.7846564141
 H        -6.8059714114        5.6477986149       -5.5807203228
 H        -7.3846617574        4.9065214473       -7.1293403512
 H       -12.4175149523        6.0813738916       -4.4990982670
 H       -13.1279382240        7.4905911859       -3.9322051186
 H       -13.4533070541        5.9875313938       -3.0721147144
 H       -10.2335837504        7.6239978356       -4.3256585302
 H        -9.4474140665        7.6364108511       -2.6738409775
 H       -10.8247071558        8.7977375538       -2.9512028108
 H       -16.1750638293        8.1130545479       -0.0836804066
 H       -15.1966781680        8.9741320032        1.1750839590
 H       -16.9637834455        8.6976250181        1.4926624945
 H       -16.1678919709        6.3122469256        3.8126978664
 H       -17.5079140911        7.2861680724        2.9684516774
 H       -16.0283495355        8.0404448226        3.6412058747
 Na       -9.4016107495        3.3598828296       -0.1690688488
