117

 C       -16.3795075036        4.3633594928        1.4124749653
 C       -16.2972553472        5.8311293661        0.8669033569
 O       -16.6361556237        6.0082666128       -0.2844387872
 C       -15.7771313788        7.0799486228        1.7005455856
 C       -14.2837308264        6.5805502709        1.8099012976
 O       -13.9777586085        5.4970829880        2.2802106754
 C       -13.1174464404        7.2610255432        0.9661276128
 C       -12.9899143096        6.6908701038       -0.3900692905
 C       -11.7844090973        7.3474763700       -1.1613509508
 O       -11.2875929657        8.3566046100       -0.7142362033
 C       -11.4337275221        6.7862643604       -2.6216144717
 C       -10.6698898246        5.4510170176       -2.4255155981
 O       -10.4114670122        5.1036169187       -1.3122869671
 C       -10.2156787493        4.6611319246       -3.6851060716
 C        -8.6994475973        4.4471634804       -3.7847294759
 C        -8.4236525276        3.4332766178       -4.8814461462
 O        -9.1648811927        2.5251997484       -5.1031077890
 C        -7.0498642535        3.4515121387       -5.6259826341
 C        -5.8938747439        3.2098723079       -4.5460114152
 O        -5.0999186529        4.0621224587       -4.2641817414
 C        -5.9754179034        1.8387459677       -3.7558663895
 C        -5.3415356877        1.8313130707       -2.2856655868
 C        -6.2589960534        2.6338149534       -1.4729404014
 O        -7.4993451930        2.4306892876       -1.5073413944
 C        -5.7745100015        3.8435080188       -0.5329030323
 C        -6.1199003493        3.4070168440        0.9792681268
 O        -7.3226294545        3.2347965745        1.2783383700
 C        -4.9776875989        3.3366061311        2.0079819090
 C        -5.1278022821        2.2572063677        3.0142170456
 C        -5.5929055965        0.9308684151        2.2930038526
 O        -5.4633829599        0.7549805114        1.1185100307
 C        -6.2610090414       -0.1812473589        3.2210057825
 C        -7.8736720549        0.3191265650        3.2596181899
 O        -8.0455461588        1.3640602686        3.7234312603
 C        -8.9792476248       -0.5736478867        2.8140985900
 C       -10.3592331247        0.0811031080        2.9501734826
 C       -10.6042222381        1.3419453648        1.9838412761
 O        -9.8912731067        1.5113769403        1.0317597417
 C       -11.9024000694        2.3123932976        2.2597465114
 C       -11.2397194598        3.6967888181        2.5464988928
 O       -10.6657446067        4.3325503212        1.6828398822
 C       -11.5155536117        4.3022250984        3.8758368123
 C       -12.6541756385        2.5538731295        0.8584150873
 C       -12.9007571935        1.7132059690        3.2431431728
 C        -6.0832135818       -1.5946314708        2.6571491935
 C        -5.7958186092       -0.2238278956        4.7125138711
 C        -4.2717154600        4.0654130244       -0.6903701766
 C        -6.6073246129        5.0640133269       -0.9392120222
 C        -6.8698902703        2.2507555414       -6.6012581761
 C        -6.6281072540        4.6545414228       -6.4287633121
 C       -12.6285641665        6.6536479176       -3.5106280180
 C       -10.4836272093        7.8608844942       -3.2643504159
 C       -16.1924525705        8.3950694764        0.9706088067
 C       -16.4168297386        7.1237521312        3.1248043002
 H       -15.8044469531        3.7528662839        0.7028487351
 H       -17.4839565614        4.1246356417        1.2710734497
 H       -16.1478904991        4.1731530959        2.4043152852
 H       -12.1990372258        7.1218474145        1.5292914917
 H       -13.2210889060        8.3006130037        0.8488638584
 H       -13.9643039131        6.9791416473       -0.8522589740
 H       -12.9470950045        5.6530331181       -0.5078009196
 H       -10.5637550485        5.3129319578       -4.5120388496
 H       -10.6444530467        3.6749874929       -3.8230979172
 H        -8.4279919295        4.0386069819       -2.8486916984
 H        -8.2096705792        5.3335742381       -3.9223903587
 H        -5.4711243578        1.0892782639       -4.3280845847
 H        -7.0045821955        1.4592989903       -3.7055412820
 H        -4.3070608239        2.1960161670       -2.4109484664
 H        -5.3536274219        0.7997584279       -1.8432509116
 H        -4.8141569510        4.3404272987        2.5102624339
 H        -4.0009408105        3.0910874756        1.5856091516
 H        -5.7382700223        2.4176481819        3.9743381159
 H        -4.0977200510        1.9683911180        3.3465031637
 H        -8.9520231266       -1.5093143646        3.4196796582
 H        -8.8002351643       -0.9562276165        1.7389383051
 H       -10.5400635688        0.2685608197        4.0094224768
 H       -11.2124008345       -0.5689026200        2.7888188226
 H       -10.8974247277        3.9552513354        4.6759355456
 H       -12.6014805630        4.3495032019        4.0982540367
 H       -11.2851015174        5.3573985604        3.6870217052
 H       -12.1777349306        3.3773866053        0.2295693679
 H       -13.6113494081        2.9207606356        1.1291442738
 H       -12.7415316157        1.6395413629        0.3203340302
 H       -13.9681868037        2.0520902154        3.0085649703
 H       -12.6939323165        1.9007685925        4.2967701612
 H       -13.1199363678        0.6497672529        3.1564664879
 H        -5.0295924280       -1.8854242742        2.8470450541
 H        -6.3440858591       -1.7267304601        1.5567762741
 H        -6.7078882040       -2.3363721430        3.1127993360
 H        -6.0617469104       -1.2073389106        5.1499908358
 H        -6.2225502245        0.5708355152        5.2435187405
 H        -4.6611438420       -0.1786895304        4.7963833455
 H        -3.6802750175        3.1296021782       -0.3913172246
 H        -3.8793711653        4.9328400114       -0.1993865217
 H        -4.0325032514        4.3919261394       -1.6894344491
 H        -6.2643993418        5.9758828614       -0.5006337911
 H        -7.6606236735        4.9387547784       -0.6370616491
 H        -6.6316478066        5.0590216422       -2.0456549735
 H        -5.7869795974        2.0721092425       -6.7973401742
 H        -7.3339817906        2.5768458839       -7.4865772050
 H        -7.3768969288        1.3045315323       -6.3025287225
 H        -5.5664252763        4.8263909993       -6.5820108867
 H        -7.0254848340        5.5714403826       -6.0204312462
 H        -7.0567709182        4.5241893593       -7.4098718506
 H       -12.3240715193        6.2656822023       -4.4906949368
 H       -12.9871106864        7.5928660091       -3.8495572016
 H       -13.4403214135        6.1176535565       -3.1630578597
 H       -10.5629666541        7.6560554909       -4.3045187519
 H        -9.4331990355        7.6742418034       -2.9171190421
 H       -10.9102412865        8.8378099181       -2.9573778464
 H       -15.8142100657        8.3350711003       -0.0217927036
 H       -15.6636169484        9.1996526354        1.5387072889
 H       -17.2436585736        8.4286907865        1.0892812706
 H       -16.2569489869        6.1406068520        3.5287425388
 H       -17.4873517046        7.3583610605        2.9831186187
 H       -15.9879949855        7.8371156002        3.8430125456
 Na       -9.4089460399        3.3965260641       -0.1890073412
