117

 C       -16.3143698401        4.4416516239        1.3974958499
 C       -16.3652326189        5.8147721718        0.7913865136
 O       -16.6185282216        6.0622611623       -0.3402410580
 C       -15.7541622167        6.9889899848        1.6687104307
 C       -14.2889798591        6.5696462235        1.6756686285
 O       -14.0242473372        5.5152110243        2.2340254930
 C       -13.1839581218        7.3842769896        0.9278604463
 C       -13.0048824076        6.7204646305       -0.4775477456
 C       -11.8182400852        7.4107147568       -1.1743775060
 O       -11.2676260165        8.3638494645       -0.6302841044
 C       -11.4344101817        6.8804268455       -2.6207170581
 C       -10.6790617324        5.5696389997       -2.3912582016
 O       -10.3586865645        5.2046367537       -1.2948164894
 C       -10.3091519204        4.7013209423       -3.6419230079
 C        -8.7851497171        4.3695795039       -3.7564482253
 C        -8.3613726179        3.3480003747       -4.9290443156
 O        -9.1758449917        2.4645390490       -5.0693706204
 C        -6.9603942647        3.3475903782       -5.7037230189
 C        -5.9120545138        3.0935384189       -4.4670247658
 O        -5.0686710949        3.9161614614       -4.1600837060
 C        -5.8646105876        1.7152893602       -3.8631055512
 C        -5.3657898458        1.8003602502       -2.3770290127
 C        -6.3174813367        2.5710072152       -1.4995314280
 O        -7.5692889614        2.4545511176       -1.5436939689
 C        -5.7847073695        3.7556215595       -0.5301598109
 C        -6.1803150883        3.4610174706        0.9827384887
 O        -7.3593118206        3.3000114379        1.2672845538
 C        -5.0675839610        3.3464315650        1.9853607984
 C        -5.1534142179        2.1573897778        3.0278369593
 C        -5.5543499793        0.8404781398        2.3978598682
 O        -5.4744871288        0.7393803006        1.1608890533
 C        -6.3330955463       -0.2049308076        3.2622020261
 C        -7.8529576522        0.3825534750        3.2923691478
 O        -8.0539648929        1.5428423248        3.6184375418
 C        -9.0411054635       -0.5632961852        2.9699008155
 C       -10.4119840995        0.1686397926        2.9735928067
 C       -10.6706119002        1.2483173357        1.9214835122
 O        -9.8765429247        1.3694309788        1.0074598600
 C       -11.8686097852        2.2728916880        2.2767202836
 C       -11.2645317211        3.7831329397        2.6069225615
 O       -10.5850615413        4.2183169868        1.6870399488
 C       -11.5785789789        4.4953355854        3.9198408603
 C       -12.7227476420        2.5575941370        0.9928840810
 C       -12.7333384057        1.8540920303        3.4140156815
 C        -6.1181475274       -1.5831223501        2.6981041573
 C        -5.8076113142       -0.1280661150        4.7319943814
 C        -4.2884506950        4.0675552934       -0.8260091147
 C        -6.5687879581        5.0069165019       -1.1029500232
 C        -6.8315051790        2.1511828338       -6.6466208914
 C        -6.6403910112        4.6933109314       -6.4957114162
 C       -12.7301949229        6.7276488572       -3.4597177010
 C       -10.4476192966        7.8853196324       -3.3609665539
 C       -16.0556997443        8.3284250824        0.9598653413
 C       -16.3381467561        6.9562544662        3.1589463212
 H       -15.5842760407        3.8933909390        0.8573952854
 H       -17.2718927573        3.9636090238        1.3032633175
 H       -16.1041627675        4.5413475743        2.4630569363
 H       -12.2855756930        7.2658607513        1.4460329451
 H       -13.3899879839        8.4306200572        0.8934225371
 H       -13.9251216651        6.7557042466       -1.0317148227
 H       -12.7622389348        5.6233548087       -0.4380640919
 H       -10.6919080838        5.2762910537       -4.5485989815
 H       -10.8327339159        3.7309039519       -3.6094043648
 H        -8.5814339841        3.8687374824       -2.7714801294
 H        -8.2679114785        5.3635535276       -3.8029271758
 H        -5.0987494545        1.1506063185       -4.4736032877
 H        -6.7356795826        1.1904610287       -3.9601164328
 H        -4.4080322163        2.2380090349       -2.4841981452
 H        -5.3011136516        0.8310690814       -1.9181238659
 H        -5.0858587275        4.2162986002        2.6203560887
 H        -4.0435026330        3.3476845064        1.5784461112
 H        -5.9730153208        2.3254695065        3.6975257858
 H        -4.2186729483        2.0063065862        3.6571973469
 H        -9.2082927395       -1.4284133602        3.7381204254
 H        -8.8642030269       -1.0885824084        2.0340673700
 H       -10.5801003865        0.5412376328        3.9907447135
 H       -11.2661454400       -0.4948110133        2.9895893870
 H       -10.7724080673        4.1695377045        4.6445187386
 H       -12.5817521763        4.4496966823        4.3059951572
 H       -11.3780320355        5.5284053237        3.7059195788
 H       -12.0989028155        3.1186711377        0.2290919754
 H       -13.4584624422        3.2598179030        1.3063635806
 H       -13.1565908565        1.6709499143        0.5699224520
 H       -13.6616506057        2.3894261231        3.3141881310
 H       -12.3019175353        2.0265726603        4.4096382675
 H       -13.1270898162        0.8575911969        3.4832509984
 H        -5.0757514518       -1.7823925177        2.8699323546
 H        -6.3797081574       -1.6993709045        1.6575715754
 H        -6.6798753612       -2.3686837028        3.1546755546
 H        -6.0277119528       -0.9852644704        5.3125706192
 H        -6.1823656567        0.8051005210        5.2286764573
 H        -4.6914237197       -0.0685424578        4.6804685339
 H        -3.6168785553        3.3974802728       -0.4014419237
 H        -4.0032631721        5.1206141563       -0.5245761222
 H        -4.0701898536        4.2003569273       -1.8813400736
 H        -6.1606392297        5.8879604649       -0.6505559115
 H        -7.6924284782        5.0455596461       -1.0304242664
 H        -6.3390954499        4.9788973196       -2.1690363646
 H        -5.8206323796        2.0087830696       -6.9065927870
 H        -7.4845237872        2.3056409982       -7.5712395471
 H        -7.1902039661        1.2741905594       -6.1553578929
 H        -5.6087387415        5.0469698842       -6.5046341935
 H        -7.1903927352        5.5105490293       -6.0428733423
 H        -7.0160321986        4.6264345467       -7.4990671800
 H       -12.5478649321        6.5148773529       -4.4758521678
 H       -13.2365697758        7.6199932770       -3.5706727059
 H       -13.4048189896        5.9920113650       -3.0659810162
 H       -10.5223523860        7.5315724095       -4.3359592863
 H        -9.4399525922        7.7990357826       -2.9605742167
 H       -10.8861824657        8.8787342824       -3.2293758108
 H       -15.2625760915        8.4555223919        0.2985815990
 H       -16.0463827278        9.1118036822        1.6742347423
 H       -17.0330735766        8.1993878991        0.4743525187
 H       -16.2256563358        5.9835862738        3.6163578670
 H       -17.3810878086        7.2674518386        3.0840418744
 H       -15.8709386143        7.6928037460        3.7928161697
 Na       -9.2838086875        3.3772595790       -0.1332847622
