117

 C       -16.4108063125        4.3667394882        1.3089918592
 C       -16.3852202166        5.7991143466        0.7187716459
 O       -16.6777141605        6.0416042430       -0.4405133297
 C       -15.7801545780        6.9571871587        1.6194922258
 C       -14.2253505252        6.5720125608        1.6877447083
 O       -13.8714380143        5.5335886353        2.2631088260
 C       -13.2499423034        7.3916560430        0.9557636323
 C       -12.9885854910        6.7758755525       -0.4993786931
 C       -11.8799225871        7.5618472393       -1.1922629796
 O       -11.1635845801        8.3603439659       -0.6619770678
 C       -11.4711285138        6.9875013911       -2.6726186861
 C       -10.6310065203        5.5930199598       -2.4502435648
 O       -10.2817524642        5.2390085427       -1.2992111040
 C       -10.2518586109        4.6966013176       -3.7015798688
 C        -8.7610271385        4.3778427120       -3.8457524744
 C        -8.4514193951        3.2919505667       -4.9022958446
 O        -9.1465707930        2.3312570596       -5.1839141028
 C        -6.9492692876        3.2651777708       -5.5604769208
 C        -5.8318848830        3.0012275593       -4.5359054971
 O        -5.1329038058        3.9106193738       -4.0927082390
 C        -5.8077088388        1.5978852075       -3.9055667899
 C        -5.4523836476        1.7026056134       -2.4041712838
 C        -6.4053009877        2.5639921237       -1.5231030075
 O        -7.5855315250        2.3411171037       -1.6024071576
 C        -5.7662799493        3.7496662063       -0.6836290965
 C        -6.1751831756        3.4450979894        0.8859363607
 O        -7.3023490927        3.4191735848        1.2390980838
 C        -5.1010171901        3.3961633767        1.9762453790
 C        -5.3110707400        2.2503230686        3.0660614629
 C        -5.7175634387        0.9176103809        2.3641584703
 O        -5.4643669777        0.5957066529        1.2078829898
 C        -6.3698070259       -0.1288239567        3.3029726612
 C        -7.8334030535        0.3982848827        3.3148417431
 O        -8.0426595126        1.6431788448        3.5385223765
 C        -9.0739752473       -0.5301056042        3.0323773022
 C       -10.4281687775        0.2095266919        3.1190254728
 C       -10.6228357174        1.2858632959        2.0638310952
 O       -10.0399592515        1.3129846436        0.9714620333
 C       -11.8252182755        2.3583849488        2.3272183854
 C       -11.1578431729        3.7586965802        2.5737484446
 O       -10.3981914753        4.2960930442        1.7776472227
 C       -11.5553809005        4.5331313044        3.7531891495
 C       -12.7390235161        2.4383043278        1.0758640574
 C       -12.6035133480        1.9069565708        3.5940567406
 C        -6.2576402566       -1.5510885287        2.7172049515
 C        -5.8370354473       -0.0299751643        4.7525171064
 C        -4.3128385917        4.0538631312       -0.8758101807
 C        -6.5219143268        5.0554433993       -1.1305338913
 C        -6.9233778098        2.1147835099       -6.6266648099
 C        -6.7288786252        4.6382953207       -6.2950198945
 C       -12.7750688711        6.7512693394       -3.4285947987
 C       -10.4405694886        7.9342170235       -3.3693688237
 C       -16.0201453571        8.3712858597        1.0176132313
 C       -16.2633710062        6.8892208345        3.0929514810
 H       -15.5748191634        3.8401921990        0.8766740540
 H       -17.2870213876        3.8576602508        1.0702235378
 H       -16.3515035711        4.4849617918        2.4178816088
 H       -12.3040933415        7.3169813459        1.4832388284
 H       -13.5330051690        8.4644737550        0.9953891590
 H       -13.8805882388        6.6990657536       -1.1020701745
 H       -12.6027961753        5.7057392133       -0.4649491926
 H       -10.6739402093        5.1323136127       -4.6126211175
 H       -10.7527473602        3.6989453114       -3.5237842393
 H        -8.3595853556        3.9793720780       -2.8299696557
 H        -8.2490888043        5.3949110911       -4.1401673217
 H        -5.1464188808        0.8491070799       -4.3768433009
 H        -6.8355947424        1.1913434656       -3.9509215194
 H        -4.4415397305        2.0161259610       -2.4304880919
 H        -5.5696035954        0.7236672586       -2.0063121960
 H        -5.1329662046        4.3099442331        2.5123309686
 H        -4.0900020076        3.2910500132        1.6333928453
 H        -6.1105405732        2.4903321934        3.7025776285
 H        -4.4435779475        2.0034739462        3.6513912203
 H        -9.2161332901       -1.3660004575        3.7401678785
 H        -9.0003625395       -0.9849229512        2.0708635723
 H       -10.6284909049        0.5014889593        4.1453147357
 H       -11.2964550222       -0.4698168885        3.0291527439
 H       -10.8862800102        4.2090507429        4.5746648571
 H       -12.5970490804        4.4360354513        4.0244397819
 H       -11.3134594310        5.5814661707        3.5238250745
 H       -12.2043358262        2.4017120798        0.1981687776
 H       -13.2432899754        3.4370713195        1.1067173187
 H       -13.4696838790        1.5923606328        1.1151073287
 H       -13.3752187823        2.5345937123        3.8744982848
 H       -12.0107434643        1.6685520877        4.4583661706
 H       -13.1380134131        0.9653416071        3.4413561896
 H        -5.2622620327       -1.8911096438        2.7657628214
 H        -6.6242429615       -1.5760677490        1.7608170843
 H        -6.8986719690       -2.2767701174        3.2222519408
 H        -6.2994199143       -0.8247615393        5.3477556206
 H        -6.0248030736        0.9555374209        5.2723499152
 H        -4.8076049077       -0.2283675950        4.7349470464
 H        -3.6829536522        3.2404782818       -0.6313224835
 H        -4.0202510595        4.8970266340       -0.2458186244
 H        -4.0407534686        4.4311073731       -1.8571853519
 H        -6.1610475303        5.8490271242       -0.4219567421
 H        -7.5924186041        4.9651300330       -1.0621040677
 H        -6.2929991241        5.2937361837       -2.1584279390
 H        -5.9507359449        2.0549286392       -7.0759615374
 H        -7.7294213843        2.1623899132       -7.3690779482
 H        -7.0703530939        1.2128774917       -6.0783553697
 H        -5.6714358388        4.8613390696       -6.2831632911
 H        -7.1516237257        5.5465082765       -5.8421436110
 H        -7.1232089600        4.6413721627       -7.3383899718
 H       -12.7152173225        6.6507595090       -4.4703614982
 H       -13.5292505546        7.5487136182       -3.3416206863
 H       -13.2073049692        5.8354894994       -3.0048545763
 H       -10.2265325105        7.4153608131       -4.3346404109
 H        -9.6292314537        8.0133623597       -2.7222454322
 H       -10.8935281400        8.8702265378       -3.4615132310
 H       -15.1278038829        8.5982709328        0.4327105406
 H       -16.2116601441        9.1193439473        1.7221368358
 H       -16.8599516632        8.2110103754        0.3478690075
 H       -15.9416937942        5.9748742903        3.6109078787
 H       -17.3049893627        7.0924005155        3.2229297754
 H       -15.8026679116        7.7554297781        3.5416911683
 Na       -9.1688943725        3.3370912052       -0.0466920199
