117

 C       -16.6097931588        4.4301649027        0.7926584865
 C       -16.3191778801        5.8814696158        0.4239481773
 O       -16.3511762513        6.1924501701       -0.7416485436
 C       -15.6901394466        6.9041283798        1.5085147918
 C       -14.1242401563        6.5224651858        1.5786515591
 O       -13.8692540251        5.4560670483        2.1025856429
 C       -13.0654093163        7.3136308908        0.7749927427
 C       -12.9952377959        6.7919328991       -0.6311669062
 C       -11.6795426113        7.3824225755       -1.3590512857
 O       -10.9429301446        8.1298334744       -0.7563308295
 C       -11.3311823243        6.7870641032       -2.7693436901
 C       -10.5743301990        5.4177133593       -2.4740338436
 O       -10.2921131637        5.1059419140       -1.3582401663
 C       -10.2833755410        4.5094818525       -3.6102681497
 C        -8.7199081260        4.1659435507       -3.7783474205
 C        -8.6061922067        3.1270376119       -4.9841221037
 O        -9.5132865044        2.3652613958       -5.2714890353
 C        -7.1807664424        2.9635985810       -5.6964190055
 C        -6.3506659576        2.6763121389       -4.4232386150
 O        -5.6986957237        3.5917247748       -3.9093717434
 C        -6.3511211202        1.3534337787       -3.6976609183
 C        -5.6256712888        1.4737693762       -2.3177289416
 C        -6.3595368831        2.5407257056       -1.4968203524
 O        -7.5764064980        2.5222187845       -1.5295358532
 C        -5.6364512347        3.7555071039       -0.8339288464
 C        -6.0265735770        3.5528985645        0.6312094340
 O        -7.1879644959        3.6321549694        0.9932846864
 C        -4.9470318010        3.3542342057        1.7239470756
 C        -5.3642288715        2.5002587412        2.9131429805
 C        -5.8202668922        1.0919838071        2.4387162140
 O        -5.4366803708        0.6471549451        1.3204693309
 C        -6.5895808143        0.1486656591        3.4379038570
 C        -8.1290964454        0.5729751360        3.5584448141
 O        -8.5182438828        1.6447051340        3.9991398041
 C        -9.2178689289       -0.4992707573        3.1126072427
 C       -10.6345938863        0.2119652168        3.1798680929
 C       -10.6987829946        1.4576750336        2.2489591103
 O       -10.0833003644        1.4765355256        1.2013257402
 C       -11.6326035688        2.7297618270        2.7227398983
 C       -10.7860400376        4.0548515623        2.8015898684
 O       -10.1162249475        4.3864512710        1.8280640372
 C       -10.6104201861        4.8624140516        4.1207106600
 C       -12.6173194243        2.8623544647        1.5326466253
 C       -12.3426294550        2.5579975450        4.0478540096
 C        -6.4822619284       -1.3740114324        3.1173362334
 C        -6.0066795471        0.2568431021        4.8657463533
 C        -4.0751491731        3.7997956850       -1.1760022290
 C        -6.2370071794        5.0988415848       -1.2164144740
 C        -7.1380722447        1.7491271103       -6.6874314687
 C        -6.6108620296        4.1572345356       -6.4433307592
 C       -12.5693335044        6.6295047500       -3.6857315472
 C       -10.3803694170        7.8397228964       -3.4557657750
 C       -16.0491048803        8.3457010548        1.0024999678
 C       -16.2569757259        6.6029411120        2.9309677098
 H       -16.3036080478        4.2392967281        1.8148162530
 H       -16.0184868581        3.8118557823        0.1321989827
 H       -17.6850663831        4.1636165083        0.6448015009
 H       -12.0526820668        7.1464786094        1.2735411552
 H       -13.2369015370        8.4165682625        0.6398467644
 H       -13.9070671138        7.0954621405       -1.2207629321
 H       -12.9273457319        5.7192146177       -0.5724913034
 H       -10.7197456798        4.9762134694       -4.5366041963
 H       -10.8034521519        3.5715710193       -3.4639630327
 H        -8.4582992033        3.6561925179       -2.8614702359
 H        -8.1405419960        5.0556683253       -3.9886513893
 H        -5.8431080429        0.5199108412       -4.2945825620
 H        -7.3792628193        1.0679019190       -3.5206093417
 H        -4.5732197751        1.7209310989       -2.5868424651
 H        -5.6790103536        0.4664814147       -1.8007714030
 H        -4.7519984996        4.3224163530        2.1673028418
 H        -4.0019182778        2.9215448471        1.3762015026
 H        -6.2550645891        2.9152139969        3.3095455621
 H        -4.5791984196        2.3359210339        3.6553620341
 H        -9.2165991560       -1.3546207458        3.7778147161
 H        -9.0873307062       -0.7851103228        2.1186375685
 H       -10.7283264690        0.4953573485        4.2511944083
 H       -11.5906516086       -0.2618945678        2.9094906831
 H       -10.5010707947        4.2089645764        5.0265282900
 H       -11.4784733362        5.4868333009        4.3336331105
 H        -9.7180922980        5.4027266715        3.8810223104
 H       -12.0816332095        3.2879355836        0.6282266400
 H       -13.4839298344        3.4472396013        1.7629237073
 H       -13.0261945366        1.8905689296        1.2871162335
 H       -12.8627344877        3.4873482669        4.2589876706
 H       -11.7581949935        2.3855525521        4.9873171843
 H       -13.1087847442        1.8150727646        3.9463551652
 H        -5.4768044098       -1.6862205487        3.2821571278
 H        -6.6506151667       -1.5957467116        2.0864743786
 H        -7.0565741594       -1.9299233362        3.8117627965
 H        -6.2930439818       -0.5273559340        5.4872631044
 H        -6.3798772842        1.1770530335        5.3460634550
 H        -4.9035722444        0.3259647765        4.8631222268
 H        -3.6161533891        2.8700225103       -1.2301201521
 H        -3.4637692196        4.3439637852       -0.4056290078
 H        -3.9100496967        4.2062004848       -2.1563830665
 H        -5.6680188227        5.8274622912       -0.7173617033
 H        -7.3141671759        5.0625411381       -0.9419004927
 H        -6.1145311443        5.3405909189       -2.2679948075
 H        -6.1717129862        1.4355851364       -6.9681234120
 H        -7.5790474186        2.1972186433       -7.6501038530
 H        -7.7440920064        0.9390561379       -6.3505939369
 H        -6.7197024907        4.0049392001       -7.5515000121
 H        -5.5437306053        4.3862142060       -6.2447758505
 H        -7.1210498625        5.0792614950       -6.1658604829
 H       -12.2177136592        6.3154939112       -4.6798760332
 H       -13.1654377521        7.5167237067       -3.5984124759
 H       -13.2413230934        5.7682347939       -3.4227141708
 H       -10.4176272291        7.6611716688       -4.4720901516
 H        -9.4216080365        7.8062814084       -2.9477499013
 H       -10.9024163183        8.7921063565       -3.3048000496
 H       -15.4949792629        8.5643603749        0.1038926172
 H       -15.9303940306        9.1120521436        1.7839824012
 H       -17.0786450965        8.4413968745        0.5759484437
 H       -15.9145612975        5.6075623383        3.1950009716
 H       -17.3522574318        6.5295122891        2.9420665074
 H       -15.8909443833        7.2440485278        3.7341637247
 Na       -9.2575530284        3.3278183116       -0.1202103955
