117

 C       -13.1216120394        6.1987111400       -6.6548024248
 C       -11.8414470723        6.9488240300       -6.4598786378
 O       -10.9941484751        6.4282983271       -5.6648329661
 C       -11.5995181335        8.4215943406       -6.8933125804
 C       -11.0903276892        9.2710503557       -5.6984090808
 O       -11.7423799250       10.1990095718       -5.2385598907
 C        -9.7533501544        8.9501446573       -5.0992670948
 C        -9.6268538710        8.9198167620       -3.6056523488
 C        -8.1396671754        8.5796019774       -3.2454501389
 O        -7.2320891108        8.8298052416       -4.0033440008
 C        -7.7446610153        7.7767432941       -1.8123374411
 C        -8.8412224876        6.7835430313       -1.5898239137
 O        -9.8861818512        7.0508188241       -1.0833162151
 C        -8.7042837306        5.2555982449       -2.0790134514
 C       -10.0396003788        4.7190059787       -2.6397297582
 C       -10.4583553110        3.4742464202       -1.8802230482
 O        -9.6134671898        3.0110960621       -1.1059692823
 C       -11.9125271139        2.9124345263       -1.8262292309
 C       -12.3883762415        2.8353628934       -0.3277054577
 O       -12.0591772938        1.8047011180        0.2722713731
 C       -13.1354732154        3.9235891119        0.4208459323
 C       -12.7872311035        3.8280682667        1.8868529340
 C       -11.3328455969        4.2128910808        2.1892490974
 O       -10.5317109164        4.3429803952        1.2912419307
 C       -10.8182408667        4.1302902190        3.6670822933
 C       -10.4167152653        2.7199339339        4.1000782140
 O       -10.1600684831        1.8431167350        3.3293312682
 C       -10.1048020056        2.5197521349        5.5447166365
 C        -9.1846626292        1.3520308358        5.7739818297
 C       -10.0228591488        0.0286794218        5.6905478435
 O       -11.2328464256        0.0390682908        5.6558936712
 C        -9.3132309544       -1.2798169222        5.5614133995
 C        -8.7590013008       -1.3038228072        4.2159520553
 O        -7.7935802909       -0.6886100239        3.9245379749
 C        -9.3965586390       -2.1224069226        3.0782255753
 C        -8.3387921191       -2.1980008763        1.9177898308
 C        -8.1123129950       -0.7182228474        1.4144550468
 O        -9.1355792815       -0.1381064986        1.0411754614
 C        -6.7050787331       -0.1327130709        0.9408731407
 C        -6.4451685688        1.4561138593        1.2757014819
 O        -7.3434196512        2.2435237544        1.3167361728
 C        -5.0550430287        1.8276070190        1.4496476040
 C        -5.5034891198       -0.9581529813        1.3590136174
 C        -6.8734106015       -0.1121774720       -0.6277648349
 C        -8.2705795282       -1.4005049198        6.6792229637
 C       -10.3243524461       -2.4741639735        5.9265576553
 C        -9.5038022343        4.8709573478        3.6850572147
 C       -11.9191037592        4.8389296970        4.5310924321
 C       -12.8001604263        4.0455469640       -2.4986480275
 C       -12.0981556494        1.4825389157       -2.4274662139
 C        -6.3002126488        7.1905459155       -2.0669140505
 C        -7.7643327824        8.7828047441       -0.6461352225
 C       -10.4202941863        8.4624919311       -7.9835574697
 C       -12.8251078749        9.1320044024       -7.5503574526
 H       -13.8767169876        6.4168539470       -5.9037231698
 H       -13.0135984879        5.1091613539       -6.6920139969
 H       -13.6807618149        6.3932348729       -7.6401913853
 H        -9.0341950846        9.7739574288       -5.4394902893
 H        -9.3915589761        8.0741316409       -5.5594416882
 H       -10.4573756597        8.2754512211       -3.1609910824
 H        -9.7650224888        9.9046921851       -3.1477957860
 H        -8.3967174402        4.7245940750       -1.1313790286
 H        -7.9397299284        5.1191271680       -2.8202186660
 H        -9.9555992955        4.4827394791       -3.7417241776
 H       -10.8232772550        5.5606516697       -2.4469158003
 H       -14.2192571137        3.7603431757        0.2036265168
 H       -12.9015010262        4.9949271219        0.0924309977
 H       -12.7682401783        2.7253751344        2.2032585863
 H       -13.5301464374        4.2529224048        2.5144062728
 H       -10.9812197596        2.4016662323        6.2362506365
 H        -9.7143571661        3.4915812419        5.9702912443
 H        -8.6022652547        1.3988358466        6.7364834259
 H        -8.4437807645        1.1942021008        4.9206927837
 H       -10.2370185037       -1.5701443833        2.7096732059
 H        -9.8290358417       -3.0487100260        3.4759872387
 H        -8.8193931694       -2.7076525104        1.0870454730
 H        -7.3894769929       -2.6792741880        2.2984862943
 H        -4.5656049034        1.1547031580        2.2059246433
 H        -5.0325205739        2.8434165325        1.6619328400
 H        -4.4789070802        1.6280708156        0.5026565551
 H        -5.7230480261       -2.0229371144        1.3072142348
 H        -5.2241553657       -0.7854312839        2.3802700512
 H        -4.5982001822       -0.7364960108        0.7768178581
 H        -6.9728680671       -1.0970004824       -0.9928227308
 H        -5.9664806174        0.3325661175       -1.0004722805
 H        -7.8020109495        0.4108267246       -0.9730659420
 H        -8.8006247275       -1.4320576217        7.6586276029
 H        -7.4733671720       -0.6062481327        6.7410407075
 H        -7.7838756666       -2.3216173140        6.5983656173
 H       -10.3652893668       -2.5965449980        7.0239895572
 H        -9.7737134704       -3.3561428450        5.4899514274
 H       -11.3451718005       -2.3672212737        5.4631812566
 H        -9.5698940892        5.9446885761        3.6711545164
 H        -8.9347128618        4.5780933257        2.7903094782
 H        -8.8761156161        4.6251493840        4.6046125197
 H       -11.8600448445        5.9737104599        4.2701197347
 H       -11.8351613806        4.7033253904        5.6310170938
 H       -12.8663445733        4.4263516977        4.2599337856
 H       -13.8826070290        3.8688984788       -2.4235274046
 H       -12.5299461210        4.1939045552       -3.4858914388
 H       -12.5251852434        4.9899079867       -2.0092170648
 H       -12.8522402941        0.8382276038       -1.9599736371
 H       -11.1026358529        1.0900007047       -2.2705381239
 H       -12.1857727433        1.7053586142       -3.5097100717
 H        -5.4997841510        7.9479765159       -2.0355922648
 H        -6.2575072450        6.6392234948       -2.9976450882
 H        -6.1712794830        6.5127533800       -1.2234741633
 H        -7.1039494331        9.6337129013       -0.8155822508
 H        -7.3818889536        8.2740898064        0.2204845297
 H        -8.7672987291        9.1878537870       -0.6206458732
 H        -9.5685246081        7.9445822632       -7.5844809066
 H       -10.2043850296        9.4566102354       -8.1729710564
 H       -10.9250436818        8.0129317459       -8.8865568580
 H       -13.7650826767        8.9115247427       -6.9767365564
 H       -13.0961207679        8.9381352173       -8.5702482738
 H       -12.6353098922       10.1619551599       -7.5166278676
 Na       -9.6973446845        2.0375131219        1.0229706920
