117

 C       -16.5795660168        4.5326879594        0.5128373996
 C       -16.0771020815        5.9045887283        0.2423303460
 O       -15.9694319650        6.2541411406       -0.8929654729
 C       -15.7339941817        6.9894909126        1.4324452961
 C       -14.2140648702        6.5625343003        1.5959306219
 O       -13.8445502021        5.7516565653        2.4185668563
 C       -13.0977899280        7.2549481763        0.7702703641
 C       -13.0784042785        6.6581546870       -0.6990681733
 C       -11.7506706481        7.2201727354       -1.3596241654
 O       -11.0777453108        8.0685487399       -0.8013588766
 C       -11.3100130161        6.6560824990       -2.7686311324
 C       -10.6774305666        5.1937342868       -2.5389344336
 O       -10.3546842927        4.8625632474       -1.4509070283
 C       -10.4970914548        4.3324235694       -3.7989692361
 C        -9.0341768849        4.2272847566       -4.3616458082
 C        -8.7847922826        3.0004841960       -5.2898024881
 O        -9.7583190494        2.3904749098       -5.7244348210
 C        -7.3374336775        2.6591079075       -5.7013477772
 C        -6.3393515856        2.6109677672       -4.4832818902
 O        -5.6313260252        3.5598732445       -4.1936006643
 C        -6.1715657584        1.2048596350       -3.7007309675
 C        -5.6376618927        1.4361726176       -2.2534195462
 C        -6.4138412016        2.4954146182       -1.5027928604
 O        -7.6170354658        2.5501093981       -1.5359646210
 C        -5.6210862179        3.5789314051       -0.7016900065
 C        -6.0708140244        3.5352142814        0.8319960057
 O        -7.2740350139        3.6207188669        1.1520786219
 C        -4.9285608946        3.2160282708        1.8432258096
 C        -5.5605018830        2.5069485378        3.0704571898
 C        -5.9340468401        1.0582233389        2.6382425904
 O        -6.0188591629        0.7277536956        1.4285067584
 C        -6.5732920815        0.1085364099        3.7234164457
 C        -8.0187029038        0.6634715011        3.6850858856
 O        -8.3559119896        1.7305108696        4.0780122854
 C        -9.0179779579       -0.2787030055        3.0250391646
 C       -10.4122260484        0.4473664982        3.0857692761
 C       -10.4551622717        1.7209778287        2.2400252324
 O        -9.7831689503        1.7164300663        1.2147509720
 C       -11.4768730533        2.8751019424        2.6648736698
 C       -10.5786611938        4.1313081054        2.9208149795
 O       -10.1104984934        4.7325851546        1.9745321480
 C       -10.1724984400        4.7617115033        4.2608035643
 C       -12.4609643253        3.1628559741        1.4695490757
 C       -12.2833840455        2.5556079384        3.9692091930
 C        -6.3856181633       -1.3394638427        3.2967756095
 C        -6.0370286488        0.2411549593        5.1745436960
 C        -4.1192971394        3.5479674875       -0.8425044787
 C        -6.1675543799        4.9134854244       -1.2061821264
 C        -7.3667112569        1.4064172660       -6.5067946487
 C        -6.9843961616        3.8701348988       -6.6611547209
 C       -12.5757411043        6.7165447983       -3.7183321688
 C       -10.1809871369        7.5787712937       -3.3609799501
 C       -15.9243926732        8.4720121504        1.0622725553
 C       -16.5490446286        6.6406777305        2.6789837498
 H       -16.4771302551        4.2811151331        1.5462525654
 H       -16.1132219195        3.8162820622       -0.2028756607
 H       -17.6199776924        4.5393776698        0.2821503542
 H       -12.1631821230        7.0080382173        1.2509263781
 H       -13.1387611806        8.3038889124        0.6995291490
 H       -13.9062240302        7.0419337518       -1.3466246714
 H       -13.0686825508        5.6048548107       -0.6337939484
 H       -11.1424108545        4.6744299909       -4.6175787694
 H       -10.8904658961        3.3597573971       -3.4663878049
 H        -8.2893573442        4.1286241274       -3.4668099605
 H        -8.7584392819        5.1876711602       -4.9160298097
 H        -5.4511746223        0.6341801985       -4.2491054089
 H        -7.0945906699        0.6045579694       -3.5958215024
 H        -4.6034256166        1.6683308446       -2.3581409323
 H        -5.6597950272        0.5624196748       -1.6693444750
 H        -4.5226481591        4.1356993009        2.2722539312
 H        -4.1078727143        2.6660619053        1.4656503022
 H        -6.5211124619        3.0448983481        3.3026863185
 H        -4.9249277596        2.4092317207        3.9238271197
 H        -9.1519149263       -1.2399778918        3.4609068139
 H        -8.8137396673       -0.3709314516        1.9128914266
 H       -10.5772348248        0.6921554195        4.1369623419
 H       -11.1573279629       -0.2551948495        2.6986831962
 H        -9.3009966638        4.2311509715        4.6133141100
 H       -10.9389671554        4.6451918720        5.0299995875
 H        -9.8661080108        5.7567086130        4.0355614188
 H       -11.9306360864        3.2472662634        0.4428681539
 H       -12.9243865493        4.0789881948        1.7256576770
 H       -13.2605620870        2.4816837438        1.3857160153
 H       -12.7662323544        3.4854081004        4.3663967931
 H       -11.6503164337        2.2971512280        4.7957324370
 H       -13.1099210834        1.9311361222        3.8081912839
 H        -5.3007273008       -1.5667138715        3.2229601968
 H        -6.7890831445       -1.5445824604        2.2592676623
 H        -6.7731288204       -1.9370392718        4.1033418448
 H        -6.4196994964       -0.5915648903        5.7676494141
 H        -6.2886329378        1.1692586841        5.6399296032
 H        -4.9193675317        0.1179949915        5.2518156947
 H        -3.7108052653        2.5578833904       -0.5938049444
 H        -3.6195598588        4.2941291964       -0.2072159741
 H        -3.8162252955        3.7749394267       -1.8658432812
 H        -5.7552517719        5.7019012324       -0.5942550372
 H        -7.2790514313        4.9179706211       -1.1205280780
 H        -5.7991297193        5.0991312751       -2.2292911869
 H        -6.4735543523        1.3136894745       -7.0971663661
 H        -8.2366910192        1.3891588871       -7.2031271667
 H        -7.4115967291        0.5767838288       -5.8145667513
 H        -7.8476894960        4.3783643282       -7.0937081756
 H        -6.4353140300        3.3663284136       -7.4468674582
 H        -6.3405601087        4.6308721947       -6.2947317499
 H       -12.1627658867        6.5365036386       -4.7332200915
 H       -12.9989359872        7.6882778167       -3.6486846843
 H       -13.3281349565        5.9933844229       -3.5299822787
 H        -9.6903151173        7.0691480108       -4.1289356611
 H        -9.5415930276        7.8045125584       -2.4739773723
 H       -10.7408232875        8.4226333674       -3.7952080003
 H       -15.7930173407        8.7116829928        0.0394951848
 H       -15.3606432729        9.1782089116        1.7097795342
 H       -16.9551168742        8.7468054506        1.2545189329
 H       -16.1288481465        5.8094551642        3.2090941372
 H       -17.6268787730        6.5199093791        2.5022337634
 H       -16.3731266112        7.4141121426        3.4379817460
 Na       -9.2216081564        3.6586910597        0.0350996377
