117

 C       -16.6187383523        4.6459747064        0.3967420041
 C       -16.0866662295        6.0377993855        0.0938587116
 O       -15.8624832244        6.3652801041       -1.0738845432
 C       -15.8181384266        6.9408400566        1.3053371448
 C       -14.1840242084        6.6070206012        1.7140247919
 O       -13.9597182814        6.0792371655        2.7939949670
 C       -13.0825363960        7.1171069641        0.8155023907
 C       -12.9240824057        6.6283589277       -0.5990997952
 C       -11.7148919951        7.2311362924       -1.3850216198
 O       -10.9796511921        8.0721966926       -0.9275002652
 C       -11.2909299405        6.6457044320       -2.8435603732
 C       -10.7966950837        5.1615175091       -2.7128828452
 O       -10.3522453221        4.7546120182       -1.6027790518
 C       -10.6443680340        4.2121655948       -3.9050775716
 C        -9.1638486049        4.1266233360       -4.3474728828
 C        -8.9649864091        2.9678050509       -5.3379363235
 O        -9.8908190974        2.3557969907       -5.7452827076
 C        -7.4204785430        2.5896438095       -5.7928940528
 C        -6.4762316755        2.5484780759       -4.5107968722
 O        -5.8380154278        3.5555971570       -4.3014711618
 C        -6.4746348228        1.2732537526       -3.7288264357
 C        -5.7837448557        1.4286668988       -2.3827274515
 C        -6.3977192433        2.5132390819       -1.5139103941
 O        -7.6623553091        2.5140829316       -1.4924564562
 C        -5.6176057854        3.5827128674       -0.7231550540
 C        -6.0199065130        3.5206269025        0.9372419316
 O        -7.1671010987        3.7460443494        1.2259659203
 C        -4.9123256669        3.3476368171        2.0806660166
 C        -5.2420256046        2.3746858394        3.2635687798
 C        -5.9258824835        1.0667063769        2.8287090678
 O        -6.0933208207        0.8534188125        1.6980581178
 C        -6.5331599579        0.0567588043        3.8930733316
 C        -8.1254964281        0.4466808815        3.8605386593
 O        -8.2479714932        1.6000637215        4.3287847486
 C        -9.1376526283       -0.2816843667        3.0146427209
 C       -10.5496460284        0.4353018166        2.9220656523
 C       -10.4212698907        1.8040851041        2.3234253612
 O        -9.6541077664        1.9716006415        1.3889067409
 C       -11.3773256304        3.0091955252        2.6867307790
 C       -10.4250194611        4.2731037639        2.8780307098
 O        -9.9691928265        4.9231374032        1.9446561504
 C       -10.0704098534        4.5040043971        4.2973433623
 C       -12.2729108025        3.3791277867        1.4579612888
 C       -12.3454801346        2.6574978780        3.8386922311
 C        -6.2719710473       -1.4295478576        3.4091589154
 C        -5.9347472613        0.3511846956        5.3013192753
 C        -4.1013122295        3.5268027856       -0.9105133156
 C        -6.1425415746        4.9847505164       -1.1752362088
 C        -7.4266008184        1.1160395024       -6.4032965040
 C        -7.0046470047        3.6936755562       -6.8284034071
 C       -12.6208949212        6.6815521135       -3.7398033495
 C       -10.0297555400        7.4320333965       -3.4382844663
 C       -15.9147010391        8.4123994711        0.8345317922
 C       -16.6481912576        6.5821787322        2.5505376052
 H       -16.0444336015        4.1390601371        1.1845145794
 H       -16.7525267025        4.1796770963       -0.5665044049
 H       -17.6364231592        4.7683863920        0.7922869203
 H       -12.1043779555        6.9894594879        1.3431081391
 H       -13.2390176268        8.2611303148        0.7942508003
 H       -13.8033980127        6.8163318657       -1.1715939885
 H       -12.7315495163        5.5112560965       -0.5288558446
 H       -11.2325234795        4.5201257624       -4.7808835020
 H       -11.0108568050        3.2066842657       -3.5857203234
 H        -8.5114822986        4.0571538049       -3.5062475966
 H        -8.7951408785        4.9716144703       -4.9163518920
 H        -5.9608846619        0.4487523099       -4.2995693563
 H        -7.5032341763        0.9515156601       -3.5389910001
 H        -4.6854184318        1.5259635063       -2.5831389958
 H        -5.7789545677        0.4226344854       -1.8366018892
 H        -4.5914229662        4.2582662669        2.5706222471
 H        -3.9826165631        2.9386062317        1.6353032242
 H        -6.0570597923        2.7904524651        3.8041249347
 H        -4.3986636669        2.1948377350        3.9396360350
 H        -9.3826186462       -1.2981554760        3.3541508269
 H        -8.7657409281       -0.3802826880        2.0243129747
 H       -11.0466433034        0.4212632003        3.8876707101
 H       -11.0272236679       -0.1900854289        2.1465031894
 H        -9.2470621021        3.8262636223        4.5704210313
 H       -10.9443214474        4.3529927856        4.9352994046
 H        -9.6415728106        5.5361929472        4.3502960004
 H       -11.6232222331        3.7695537581        0.7514353806
 H       -13.1267666648        4.0534612048        1.6787211892
 H       -12.6945214717        2.4828950583        0.9374193604
 H       -13.0542409830        3.4314383733        4.0486305172
 H       -11.7267267718        2.5032983338        4.6898029875
 H       -12.9532985318        1.7690935313        3.6080840702
 H        -5.2935475642       -1.7267902202        3.7078499466
 H        -6.3725630118       -1.4718967985        2.3656239166
 H        -6.9980121464       -2.0706448925        3.9154551795
 H        -6.3068062913       -0.3850835970        6.0386132913
 H        -6.1596776503        1.3630446723        5.6524416770
 H        -4.8915067358        0.2358953295        5.3404311455
 H        -3.6137255529        2.5707137846       -0.6491054378
 H        -3.7023738356        4.3472634443       -0.3794585425
 H        -3.8810500360        3.8101830296       -1.9282169046
 H        -5.4312648284        5.7687998082       -0.7976386142
 H        -7.0978394279        5.2300311821       -0.7606646375
 H        -6.1164250657        4.9815724458       -2.2593651802
 H        -6.4165594028        0.7270679028       -6.6640379648
 H        -7.9707651218        1.2268438913       -7.2756657545
 H        -8.0142267207        0.3944593028       -5.8221973876
 H        -7.8011946696        4.4043119180       -6.8241724295
 H        -6.7071658560        3.3536689286       -7.8178167292
 H        -6.2384102578        4.3488532918       -6.3711815054
 H       -12.4384219930        6.4650542695       -4.7787226005
 H       -12.9812556413        7.7513312581       -3.7739822085
 H       -13.3647058354        6.0505544543       -3.2252580152
 H        -9.6430690383        6.8127934323       -4.2835007903
 H        -9.3503300003        7.4400002773       -2.6501760471
 H       -10.3953451504        8.3635253003       -3.7369361513
 H       -15.8269032059        8.6406834582       -0.2548617853
 H       -15.1070389130        8.9902972576        1.2602663197
 H       -16.7653518334        8.9537361098        1.2137190109
 H       -16.4531365650        5.6404248765        3.0550051019
 H       -17.6905279278        6.6961513658        2.3424175675
 H       -16.4055727710        7.2853609073        3.3219642972
 Na       -9.1495146451        3.6373203155       -0.1331957759
