117

 C       -16.7041716464        4.7121298573        0.1523718777
 C       -16.0075499131        6.0810900976       -0.1624046007
 O       -15.7853407113        6.4106078041       -1.3301714117
 C       -15.6023633695        7.0061476046        1.0688094113
 C       -14.1604027799        6.7731894885        1.6201913254
 O       -13.9911500253        6.3129338853        2.7628546468
 C       -12.9926184912        7.1478212796        0.7602302835
 C       -12.7956107860        6.5304781631       -0.6132144128
 C       -11.6823407783        7.1544733341       -1.3903219350
 O       -10.9774361451        8.0282350636       -0.9074536618
 C       -11.3901646007        6.6063004545       -2.8520332920
 C       -10.8149578886        5.1405602174       -2.7639690258
 O       -10.4977345101        4.6323714669       -1.6468042369
 C       -10.6976214311        4.2890614201       -4.0154749249
 C        -9.2562073274        3.7489299088       -4.2076496219
 C        -9.1283977658        2.6959128287       -5.3083989280
 O       -10.0703758924        2.1719881790       -5.7827890259
 C        -7.7014649840        2.3146209474       -5.8534619971
 C        -6.7761038872        2.4051851749       -4.5999216374
 O        -6.3540565450        3.5170221442       -4.2645234102
 C        -6.7928214462        1.2870951856       -3.5647489834
 C        -5.8542821189        1.5909097354       -2.3422765468
 C        -6.4724272395        2.5947977737       -1.3718307618
 O        -7.7086560477        2.6059031286       -1.2287454474
 C        -5.5759104562        3.5996944057       -0.5121281811
 C        -5.8469064613        3.4340760127        0.9592368568
 O        -6.9545409650        3.6646573780        1.3836485449
 C        -4.7920821759        3.1057926103        1.8914442012
 C        -5.3589140563        2.4852240671        3.1731916987
 C        -5.9992142823        1.1690944706        2.7850808245
 O        -5.9636974418        0.7563215192        1.6342049201
 C        -6.6018109104        0.2737522773        3.9182548753
 C        -8.1168408648        0.5448320266        4.0603794984
 O        -8.5329173016        1.3306440952        4.9212984789
 C        -9.0561736103       -0.0781281596        3.0961936704
 C       -10.4032315105        0.5778582594        3.0942584256
 C       -10.2819102354        1.8483445794        2.2440771167
 O        -9.5486326124        1.8452182582        1.2764946824
 C       -11.2025204944        3.0671328880        2.5501082089
 C       -10.1908999437        4.1945726967        2.8402717835
 O        -9.6896867597        4.8708657338        1.9492686491
 C        -9.8721728754        4.4355824884        4.3456194793
 C       -11.9453030741        3.3471588719        1.2750230468
 C       -12.1851578684        2.7886915433        3.7360193389
 C        -6.4617631820       -1.2817171355        3.5259862691
 C        -5.9600722005        0.6137322787        5.3069828292
 C        -4.0564820089        3.4239926516       -0.8245825054
 C        -6.0140019501        5.0451146242       -1.0019273996
 C        -7.6703202847        0.9558480033       -6.6299727157
 C        -7.1258628654        3.3871037033       -6.8664287033
 C       -12.7187627879        6.6870517943       -3.6516061791
 C       -10.2168249544        7.5065674777       -3.5453176662
 C       -15.7072671388        8.4806837747        0.5491269870
 C       -16.5590498019        6.7716241920        2.3255474333
 H       -16.1353097060        3.9495997771       -0.3595283664
 H       -17.7145986913        4.7289607237       -0.1067624414
 H       -16.5633162057        4.4699223057        1.2378886715
 H       -12.1228341715        6.8740890667        1.3173193641
 H       -13.0048626820        8.2136873326        0.7454751508
 H       -13.7634119020        6.4770980388       -1.1427210119
 H       -12.4433621977        5.5269771612       -0.4759530197
 H       -10.9674935889        4.8577153777       -4.9435326159
 H       -11.4068746880        3.4777625466       -3.8959324649
 H        -8.7922586144        3.3605608929       -3.2526371586
 H        -8.4271162572        4.5240192870       -4.4506170189
 H        -6.5414964010        0.2626148936       -3.9962453216
 H        -7.7634631433        1.1865806843       -3.1848116822
 H        -4.9337309575        1.9181075034       -2.7247380398
 H        -5.5528642342        0.7159745779       -1.8302450257
 H        -4.1552874594        3.9326207134        2.0769546459
 H        -4.1074245827        2.3476287957        1.4644091330
 H        -6.1982899136        3.0228734264        3.5207884246
 H        -4.6524403467        2.3206549463        4.0114379540
 H        -9.1038203405       -1.1763196645        3.3223571338
 H        -8.6440955452        0.0191048242        2.1452418536
 H       -10.6353853421        0.7285951814        4.1505812320
 H       -11.1159502101       -0.0328843184        2.5394139586
 H        -9.9614038885        3.4785576838        4.8731663345
 H       -10.6025930129        5.1353777760        4.6524102330
 H        -8.8886638304        4.8270128783        4.5616747445
 H       -11.2791948248        3.3790928008        0.5110756785
 H       -12.4956207755        4.3220361532        1.3409158264
 H       -12.6485111817        2.5416602264        0.9848786271
 H       -12.7297995812        3.6679271995        3.9438811500
 H       -11.8084078419        2.3033851185        4.6557621674
 H       -12.9227572331        2.0694081108        3.2783458848
 H        -5.3841172761       -1.5472118247        3.5203288489
 H        -7.0114686475       -1.4747982740        2.6177069884
 H        -7.0494078187       -1.8688999170        4.3015611642
 H        -6.3036193584       -0.0134078385        6.1018717876
 H        -6.1776417867        1.6803411758        5.6526976942
 H        -4.8757981405        0.5391452870        5.2605119258
 H        -3.8783410871        2.3785326019       -0.9464120603
 H        -3.4339755351        3.7938954010        0.0314322848
 H        -3.7285711149        3.9990439653       -1.7042637256
 H        -5.6226777501        5.7829341318       -0.3138868648
 H        -7.0877541957        5.1634044254       -0.8412276597
 H        -5.7615224439        5.1355837040       -2.0475583366
 H        -6.6416119758        0.8351757564       -6.9588659407
 H        -8.3934235622        0.9368883638       -7.4394072244
 H        -7.9359659525        0.1030706993       -5.9978306762
 H        -7.7888255387        3.8744968966       -7.5849585568
 H        -6.2696476402        2.9103396106       -7.3475940106
 H        -6.7545515677        4.1918566470       -6.2423616274
 H       -12.5771366967        6.4800848890       -4.6565246123
 H       -13.1410292331        7.6581923201       -3.6580006147
 H       -13.3454951551        5.9825633952       -3.1095978222
 H       -10.3164335530        7.3268883816       -4.6513995918
 H        -9.2593025783        7.1705252552       -3.2094389388
 H       -10.4660266600        8.4947329590       -3.1866911131
 H       -14.7466000013        8.8252136718        0.1466132175
 H       -15.9606391710        9.2883021164        1.1595478850
 H       -16.4331303442        8.5000625471       -0.2795518591
 H       -16.3299009969        5.7587088342        2.7318094277
 H       -17.6414139824        6.7907669442        2.1088651274
 H       -16.4085411413        7.4770149966        3.1465537307
 Na       -8.9890769634        3.9427115370        0.2298683171
