117

 C       -16.6204358579        4.7629956439        0.1458144082
 C       -15.9317202554        6.0926087831       -0.1612295291
 O       -15.7291102941        6.3904145675       -1.3033392763
 C       -15.5782807788        7.0286785770        0.9514812265
 C       -14.1248487094        6.7650594548        1.5490946367
 O       -14.0170896006        6.2734686344        2.6434013713
 C       -12.9382171814        7.1601042300        0.6766930268
 C       -12.7992985382        6.4959414913       -0.6473575075
 C       -11.5997415365        7.1391772050       -1.3962403035
 O       -10.9802860320        8.0570129921       -0.8853945822
 C       -11.3916852885        6.5926619582       -2.8273601892
 C       -10.8561112468        5.1413025052       -2.7757208862
 O       -10.4756401632        4.6727483724       -1.6836043520
 C       -10.6893269442        4.3596035799       -4.1117196927
 C        -9.2489820675        3.7238356096       -4.1715019111
 C        -9.1934834989        2.6766984155       -5.3374865405
 O       -10.1907759164        2.1562186597       -5.8233340276
 C        -7.6674758678        2.1945549603       -5.8323758774
 C        -6.8981153622        2.3650422494       -4.5024716207
 O        -6.4232479592        3.4531468717       -4.2637232998
 C        -6.7616033093        1.1722358037       -3.5656006791
 C        -5.9344555118        1.5536018563       -2.3373900942
 C        -6.4615068001        2.6436233387       -1.3893491546
 O        -7.6976086358        2.6629768270       -1.1816868528
 C        -5.5286907320        3.6365009465       -0.6408201552
 C        -5.8390294449        3.4620150954        0.9224480832
 O        -6.9491961683        3.6674022041        1.3822777678
 C        -4.7149626521        3.0191795101        1.9497527855
 C        -5.3380230128        2.4994855450        3.2552961510
 C        -6.0049053918        1.0804655950        2.8622216265
 O        -5.9819706504        0.7298399257        1.7496428718
 C        -6.5729129604        0.2127351015        4.0167780657
 C        -8.1730715609        0.5532222389        4.1338336386
 O        -8.4949564456        1.2798796031        5.0385195269
 C        -9.0826509854       -0.1558117727        3.1373129438
 C       -10.4355225168        0.4847463411        3.0533987572
 C       -10.3655190204        1.7577077893        2.1818966310
 O        -9.5797179008        1.7938128077        1.2616872085
 C       -11.2035877467        3.1140992631        2.4804610783
 C       -10.2140822129        4.2647724222        2.9420548618
 O        -9.6437703890        4.9537712509        2.1155548079
 C        -9.8277939492        4.5129369899        4.3705569924
 C       -11.9621442531        3.4642649736        1.1738946537
 C       -12.1457734661        2.8509603404        3.6689457726
 C        -6.3915110571       -1.2612275730        3.6108310166
 C        -5.8550554038        0.6582902805        5.3167982731
 C        -3.9952736544        3.4708257797       -0.9599621022
 C        -5.9147912336        5.1176861756       -1.0063753250
 C        -7.6840917280        0.8917261376       -6.5024080840
 C        -7.3715263967        3.3887439270       -6.8502899585
 C       -12.7523398179        6.6451406274       -3.5546225884
 C       -10.3025365251        7.4015445779       -3.5451172067
 C       -15.6741281430        8.5317638100        0.5007321715
 C       -16.5860349429        6.8634330395        2.1466564953
 H       -16.6064160839        4.0922293925       -0.7203383779
 H       -17.6443246686        5.1034525914        0.3969771551
 H       -16.1948825278        4.3212361910        0.9793342929
 H       -12.0401559462        6.9603305769        1.2717210332
 H       -12.9853984589        8.2708110863        0.5555266655
 H       -13.6596326433        6.8445550649       -1.1251905093
 H       -12.8569995812        5.3844760938       -0.6419569157
 H       -10.9049236018        4.8885164597       -5.0560356045
 H       -11.4402432701        3.4859807137       -4.0171816939
 H        -8.8866199829        3.2395498041       -3.1990278718
 H        -8.3817137073        4.3883422016       -4.3398544563
 H        -6.3318411814        0.2722561753       -4.0493036945
 H        -7.7324468514        0.8213337614       -3.1784298251
 H        -4.9362989556        1.7602636856       -2.7146469688
 H        -5.7232167867        0.6505299768       -1.7407746165
 H        -4.0263595880        3.8027903734        2.1781246329
 H        -4.0669523094        2.2485409348        1.5787321200
 H        -6.0948187573        3.1667804282        3.5802909164
 H        -4.6515991013        2.3732273851        4.0494869983
 H        -9.0799260436       -1.1449266010        3.5204834227
 H        -8.6575685229       -0.2245636311        2.1663960010
 H       -10.7085024826        0.6951229902        4.0761537828
 H       -11.1648964108       -0.1575556256        2.5106239093
 H        -9.7735693949        3.5718672659        4.8472003859
 H       -10.5103870042        5.2351773708        4.8200444202
 H        -8.8153614555        4.9505595865        4.4249158623
 H       -11.3880120485        3.3771240072        0.2213412107
 H       -12.3636966960        4.4553909473        1.2573384349
 H       -12.7840732404        2.7626070790        1.0587924188
 H       -12.6244603272        3.8075709360        3.8354324594
 H       -11.6776416809        2.4619516497        4.5080798703
 H       -12.8825104286        2.1174837671        3.4062286535
 H        -5.3516124036       -1.4180720551        3.3576820085
 H        -7.0823618968       -1.4273976193        2.8069919214
 H        -6.7549123063       -1.9390534273        4.3902869898
 H        -6.2121428038        0.1004009988        6.2519690637
 H        -6.0879891009        1.6801365646        5.5353497470
 H        -4.7809868053        0.5976851747        5.2455033168
 H        -3.7692560185        2.3689176157       -0.9343277039
 H        -3.4471563181        3.9335905666       -0.2161780141
 H        -3.7686536117        3.8819415928       -1.9300874925
 H        -5.5728081695        5.7981211662       -0.1891803663
 H        -6.9679466698        5.1767835219       -0.8667370334
 H        -5.6698570845        5.3513267928       -2.0387861525
 H        -6.7463097769        0.7056893514       -7.0669381318
 H        -8.5301627753        0.7900842699       -7.0632274695
 H        -7.7540903806        0.1243394554       -5.7197926708
 H        -7.9241250375        3.3708311131       -7.7568960735
 H        -6.3191729805        3.4218852387       -7.0867489713
 H        -7.6400098504        4.3181574618       -6.3105480322
 H       -12.5877178837        6.5811810085       -4.5984522423
 H       -13.2395487589        7.6134837585       -3.4047055464
 H       -13.3343787102        5.8784797152       -3.1684720447
 H       -10.3718142652        7.0637249349       -4.5935159124
 H        -9.3354625384        7.1760500702       -3.1425282073
 H       -10.5758148515        8.3980573491       -3.3346909974
 H       -14.6818159290        8.8821532177        0.2108417230
 H       -15.9199947516        9.3159626832        1.1925813723
 H       -16.2951076969        8.6559995098       -0.3356222714
 H       -16.4433356192        5.8897565676        2.6519607978
 H       -17.6124386576        6.8606445026        1.8115550878
 H       -16.5554024882        7.6835010132        2.8659025379
 Na       -8.9832026929        3.9961803971        0.1977439870
