117

 C       -16.5765800647        4.7433002738        0.1453497339
 C       -15.9307283623        6.1270708917       -0.2265034034
 O       -15.6281624756        6.3703124448       -1.3691514722
 C       -15.5591967496        7.1627897916        0.9341125652
 C       -14.1630640438        6.7896823253        1.5330419677
 O       -14.0096218576        6.1271147198        2.5306264546
 C       -12.8288166264        7.1962721099        0.7830696596
 C       -12.8128598534        6.6100137742       -0.6140351125
 C       -11.5813740175        7.1243400095       -1.4109053453
 O       -10.9153456408        8.0190809576       -0.9827199568
 C       -11.3712211805        6.5456293758       -2.8761238365
 C       -10.7744184447        5.0709385052       -2.7520996057
 O       -10.4128858524        4.6465841278       -1.7155092776
 C       -10.7168123906        4.3773457844       -4.1021922882
 C        -9.3895960374        3.6649448728       -4.2091832644
 C        -9.3126627941        2.6123820894       -5.3012735745
 O       -10.2787344461        2.1320511460       -5.8565481656
 C        -7.8671845253        2.2195046740       -5.7203308598
 C        -6.8844067544        2.3689748047       -4.4803693645
 O        -6.3460527756        3.3977059097       -4.1078565723
 C        -6.6972958133        1.1467396052       -3.5447533287
 C        -5.9026676426        1.5211784219       -2.2731989344
 C        -6.4683342004        2.6708668565       -1.4202849920
 O        -7.6370172733        2.7436870249       -1.2775589197
 C        -5.5042677132        3.6429442242       -0.6331278415
 C        -5.8002146518        3.4561299611        0.8537446135
 O        -6.9089770039        3.7205910949        1.3073087185
 C        -4.6847352066        3.0342762591        1.8835906383
 C        -5.2985583883        2.4549455527        3.1342316874
 C        -5.9470401054        1.0871050289        2.9347459634
 O        -6.0613892185        0.6373062714        1.7799365820
 C        -6.5270169623        0.2354195408        4.1286534117
 C        -8.0822209035        0.4905357186        4.2813758623
 O        -8.5782889254        1.2630808198        5.0506624391
 C        -9.0932125910       -0.2407320237        3.2648182998
 C       -10.4744443947        0.5451399081        2.9921518416
 C       -10.3260477405        1.7882786317        2.1520603849
 O        -9.6067777161        1.8388370171        1.1689013836
 C       -11.2026307629        3.1243212792        2.5447917711
 C       -10.0768012481        4.2675285775        2.9869673329
 O        -9.6853319716        5.0569501645        2.1628521679
 C        -9.8476864191        4.4944807603        4.4676004124
 C       -11.9322668382        3.5742285414        1.2606866776
 C       -12.2968663035        2.9492132904        3.6372392148
 C        -6.1993347145       -1.2211137624        3.8082264880
 C        -5.8371901103        0.4849538410        5.4406271614
 C        -4.0062877899        3.4829913769       -1.0644328202
 C        -5.8433799526        5.1270176191       -0.9857420997
 C        -7.7874400217        0.8117407699       -6.3576875437
 C        -7.5913479161        3.3494841146       -6.8274744397
 C       -12.7726784544        6.5826151762       -3.6051854173
 C       -10.3382727054        7.4421410164       -3.6250824940
 C       -15.6966813886        8.5902983211        0.4063718223
 C       -16.6678577359        7.0113877739        2.0444257072
 H       -17.0590560796        4.3120007650       -0.7394231550
 H       -17.3189870032        4.9471433502        0.9472247277
 H       -15.7864867717        4.1189317429        0.5408309641
 H       -12.0270982362        6.6458650525        1.3478430851
 H       -12.6331141504        8.3068622118        0.9070944543
 H       -13.7307877245        6.9470136054       -1.0736150388
 H       -12.8849512692        5.4953598646       -0.5811828572
 H       -10.7271609952        5.0918590405       -4.9330454522
 H       -11.6081640141        3.6938976379       -4.2708096168
 H        -9.0623293851        3.1835471626       -3.2945381548
 H        -8.5724782712        4.2988012032       -4.3456615856
 H        -6.2563476336        0.3019451887       -3.9876768387
 H        -7.7305809913        0.7743630254       -3.1759464909
 H        -4.8302532290        1.6212598003       -2.6433579435
 H        -5.7654253601        0.6150389100       -1.6041133315
 H        -4.1407461558        3.9349486748        2.2659636082
 H        -3.8787511434        2.4305263830        1.5513364617
 H        -5.9686103357        3.2194793546        3.6133332972
 H        -4.5512415124        2.2216292753        3.8552153040
 H        -9.1636844349       -1.2378861554        3.6230466728
 H        -8.6572728495       -0.3873017538        2.2133329927
 H       -10.9653418606        0.7875952154        3.9368515580
 H       -11.1309574043       -0.0581953561        2.3347298264
 H        -9.5785206389        3.5754522086        4.9882963571
 H       -10.7471942162        5.0556973375        4.8380600789
 H        -9.0298098265        5.1997487062        4.5901260572
 H       -11.4125353540        3.5350102604        0.2334021255
 H       -12.2370460942        4.5833930372        1.4406219369
 H       -12.8058974976        2.9698698135        1.1493273604
 H       -12.7930844832        3.9157674789        3.5362655310
 H       -11.8627632462        2.7958581642        4.6037960599
 H       -12.9037635415        2.1118698139        3.5309256250
 H        -5.1508559974       -1.2273584760        3.6970369589
 H        -6.7538907282       -1.5391025941        2.9306877037
 H        -6.5052165676       -1.8380171232        4.5716375088
 H        -6.2814734163       -0.1834175160        6.1802846511
 H        -5.9976522333        1.4411235002        5.8451054191
 H        -4.7441471078        0.3411645924        5.3947617774
 H        -3.5995726861        2.5686937978       -0.6426095173
 H        -3.4302908625        4.3305303310       -0.7252986916
 H        -4.0527321107        3.3864549059       -2.1316300453
 H        -5.3563632424        5.8069518082       -0.3062760158
 H        -6.9163064199        5.2882556284       -0.8054855215
 H        -5.6582776194        5.2278191283       -2.0619825392
 H        -6.9016005611        0.7123917097       -6.9411957675
 H        -8.7119100765        0.5385260116       -6.9307460575
 H        -7.6961953094        0.1150926435       -5.5555204550
 H        -7.6268021619        2.8271299940       -7.7833588384
 H        -6.5397379142        3.5751053338       -6.7523174849
 H        -8.2202672372        4.2360326141       -6.8830320306
 H       -12.5045674218        6.6386193428       -4.7015831159
 H       -13.1697647564        7.5706616185       -3.3855665391
 H       -13.4706717007        5.8087224762       -3.3576927768
 H       -10.2017359264        6.9727140451       -4.5177663490
 H        -9.4079429398        7.4169602557       -3.0330636235
 H       -10.7268660387        8.4559530586       -3.6304043385
 H       -14.8199025253        8.9360182733       -0.0902469394
 H       -15.7826120048        9.4154083554        1.1404373073
 H       -16.5028331349        8.6895089774       -0.2863942965
 H       -16.6377321234        6.0308283379        2.4604123326
 H       -17.6566501692        7.0643195974        1.5979016662
 H       -16.7103480927        7.7918562566        2.7957905765
 Na       -9.0005634021        3.9697201040        0.0844617587
