117

 C       -16.4673393928        4.7906249925        0.1098118040
 C       -15.8886467083        6.1513833438       -0.2214629473
 O       -15.5872288115        6.3536191681       -1.4061218862
 C       -15.6086453573        7.2284921062        0.8903584941
 C       -14.2039371988        6.7861472811        1.5490402276
 O       -14.1701361900        5.9505527112        2.4577020649
 C       -12.8068048450        7.2416713762        0.8710039545
 C       -12.7827587213        6.7455904317       -0.6389342500
 C       -11.6101511761        7.2142901903       -1.4191578641
 O       -10.7358485265        8.0086621725       -1.0816611864
 C       -11.3907932528        6.6207017606       -2.8818968323
 C       -10.8406054368        5.1616539776       -2.7990854680
 O       -10.3539865032        4.6191957193       -1.8068463329
 C       -10.7923206285        4.3467865304       -4.0418357216
 C        -9.5203081245        3.5875328230       -4.1687798584
 C        -9.4259778756        2.4726001376       -5.2363518080
 O       -10.3702765146        2.0866020426       -5.8340303949
 C        -7.8719410174        2.1946889101       -5.6039753552
 C        -6.9132232573        2.3567720596       -4.4097135492
 O        -6.3191931115        3.4199309093       -4.1438042671
 C        -6.7087444966        1.1295768101       -3.4520759998
 C        -5.8332303661        1.4260439919       -2.1988008727
 C        -6.4162595451        2.6438296827       -1.5149341346
 O        -7.6265808733        2.8227492884       -1.4972250185
 C        -5.4738834816        3.6435431297       -0.7494554809
 C        -5.7684207553        3.4882035201        0.8480915240
 O        -6.8885050831        3.7592241914        1.2342552416
 C        -4.7120764722        3.0887842777        1.8074073650
 C        -5.2041406137        2.4096265693        3.1296028296
 C        -5.9615636412        1.0487178272        2.9569212713
 O        -6.1720946625        0.5594687652        1.8102575051
 C        -6.5418512760        0.1926495495        4.2175739316
 C        -8.1135853007        0.4943642928        4.2554343440
 O        -8.5612320654        1.2771466095        5.0869356299
 C        -9.0595460421       -0.1929433993        3.2712379285
 C       -10.3489537537        0.5927612271        3.0108178241
 C       -10.2683708131        1.9053783862        2.2081809612
 O        -9.6725451231        1.9545078340        1.1550112402
 C       -11.1649640342        3.2326160889        2.6540767418
 C       -10.2072963819        4.3326275856        3.0125587607
 O        -9.6670878756        4.9866110593        2.1146774025
 C        -9.9173578549        4.4124004335        4.5170307525
 C       -11.8343193921        3.6741353907        1.3552150561
 C       -12.2656015405        2.9620701201        3.6169652745
 C        -6.0887080732       -1.3528002164        3.8883691419
 C        -5.8705397010        0.4970100682        5.6739879901
 C        -3.9338999458        3.4523919659       -1.1125325253
 C        -5.8717476416        5.1427023877       -1.0281692753
 C        -7.9046768207        0.7701919574       -6.1983209886
 C        -7.6307064471        3.2345809418       -6.7566884164
 C       -12.7162902003        6.5018304701       -3.6828173051
 C       -10.3817925135        7.5049339627       -3.6442920639
 C       -15.6248082741        8.5941235155        0.2573106048
 C       -16.6912233306        7.1649033560        2.0394340042
 H       -17.2329237400        4.5999151280       -0.6538185648
 H       -16.8472816238        4.7356606284        1.1040285007
 H       -15.5797454321        4.0413395023       -0.0205073907
 H       -11.8945583101        6.8873448254        1.3998076567
 H       -12.8762899905        8.3258285277        0.9609788762
 H       -13.7959185345        7.0592280130       -1.1057225620
 H       -12.7416174333        5.6667584361       -0.7713716025
 H       -10.9375071070        4.9422317310       -4.9491406791
 H       -11.5746762920        3.6520529679       -4.0306776566
 H        -9.3496733932        3.1015206331       -3.2790832203
 H        -8.6319763182        4.1707115328       -4.2405731735
 H        -6.1917582613        0.3790506236       -4.0576007361
 H        -7.6377353586        0.6535058321       -3.1348160732
 H        -4.7820863079        1.5306924611       -2.5644495376
 H        -5.7262790502        0.5765534292       -1.4873448473
 H        -4.0001158956        3.9144983145        2.0527715425
 H        -4.0481280139        2.3596626521        1.2740280609
 H        -5.9173672362        3.1231056471        3.6673061445
 H        -4.3783328338        2.1690131427        3.8826222771
 H        -9.2529667768       -1.2199813694        3.7854527664
 H        -8.5729247341       -0.5524543618        2.3157664755
 H       -10.7651585748        0.7926819315        4.0221568719
 H       -11.0320865162       -0.0452536032        2.4471340552
 H        -9.3586126061        3.4798007124        4.8279438818
 H       -10.7740318568        4.7122397376        5.1108928676
 H        -9.2158738407        5.2342110151        4.6358436148
 H       -11.2349632947        3.7297377557        0.5221034789
 H       -12.1798824207        4.7310027183        1.5504692381
 H       -12.6979542355        3.0349680160        1.1022657310
 H       -12.8217721607        3.8532956739        3.4957235196
 H       -11.8862315140        2.7644483847        4.6523591536
 H       -12.7807356223        2.0094845630        3.4004218266
 H        -5.0368569734       -1.3374566223        4.0203552570
 H        -6.3820246475       -1.6992725075        2.9286620446
 H        -6.5318241172       -1.9966570005        4.6189480060
 H        -6.2479139380       -0.1581998354        6.3531406913
 H        -6.0540095161        1.4898276169        6.1432583656
 H        -4.7920656650        0.3883893140        5.6192913443
 H        -3.5270030370        2.6647373356       -0.5630694184
 H        -3.3898974374        4.4131364010       -0.8055773045
 H        -3.9002141786        3.2017666881       -2.1728756004
 H        -5.2206794201        5.7969046155       -0.5130673323
 H        -6.9079483642        5.3700514164       -0.6711543055
 H        -5.8594481570        5.2456866270       -2.1100337224
 H        -7.0263006455        0.5655449194       -6.7728879808
 H        -8.8185123998        0.7230282616       -6.8861859960
 H        -7.9804630417        0.0026089820       -5.4359101071
 H        -7.2886197490        2.5488531819       -7.5743923700
 H        -6.7471144432        3.8636109227       -6.5906647464
 H        -8.4719085939        3.8108619921       -7.0881960860
 H       -12.3837763715        6.3237556241       -4.7381817263
 H       -13.2028210162        7.4802252810       -3.6337700145
 H       -13.4468509030        5.6729913357       -3.3172205393
 H       -10.0686552267        6.8976288100       -4.4807083763
 H        -9.5636126923        7.7031145411       -2.9666714021
 H       -10.8805347746        8.4523729661       -3.8678685955
 H       -14.9521492222        8.7545976592       -0.5824544259
 H       -15.2975987029        9.3719712604        0.9086503665
 H       -16.6321384805        8.9075807507       -0.1284572078
 H       -16.7035672212        6.2028272815        2.4993157555
 H       -17.7324120926        7.3093536145        1.7407160289
 H       -16.5321165948        7.9754214058        2.7177415759
 Na       -9.0342819586        3.9272775899        0.0419898104
