117

 C       -16.3958279669        4.7361822418        0.1483071326
 C       -15.8818432252        6.1262371174       -0.2643813619
 O       -15.5665045150        6.4416303504       -1.3875243015
 C       -15.5768373892        7.2311599813        0.8665660897
 C       -14.2812369635        6.7347634222        1.4100768631
 O       -14.2958412670        5.8836690238        2.2960912098
 C       -12.9824256453        7.3143874121        0.8701794904
 C       -12.7275015259        6.8640437612       -0.6278475465
 C       -11.4860622484        7.2833109682       -1.3706160566
 O       -10.6400570805        8.0494971966       -1.0033714129
 C       -11.3831645457        6.6445890754       -2.9560310467
 C       -10.8636775600        5.1907417355       -2.8522483423
 O       -10.3554413059        4.7900567601       -1.7470379211
 C       -10.9214194144        4.2253037312       -4.0777937948
 C        -9.6251341061        3.5327678783       -4.0034481742
 C        -9.3969748634        2.5053471963       -5.1858254636
 O       -10.3610827315        1.9865217117       -5.7379637142
 C        -7.9486009139        2.0870604463       -5.6082470949
 C        -6.9536198259        2.2694681896       -4.3738988994
 O        -6.3983735700        3.3423322456       -4.2500669011
 C        -6.7104295045        1.0837273766       -3.4661197345
 C        -5.8357820039        1.4328200297       -2.2343004811
 C        -6.3463297617        2.6649139307       -1.5518686836
 O        -7.5832482745        2.9185160920       -1.6741469874
 C        -5.4358235741        3.7002423429       -0.7631837878
 C        -5.7884597325        3.4400077382        0.8396030515
 O        -6.8979726968        3.7748800641        1.1626399425
 C        -4.7352241542        2.8989720780        1.7757911862
 C        -5.2051073898        2.2989820978        3.1704436910
 C        -5.9709634733        0.9855180547        3.0264310017
 O        -6.2528236380        0.5831220027        1.9508971197
 C        -6.4334113204        0.1629972322        4.2500971190
 C        -8.0452939398        0.4458746577        4.2639388261
 O        -8.4211864667        1.2974989698        5.0603662772
 C        -8.9691544703       -0.0743271810        3.2021312422
 C       -10.2766510443        0.6979189494        3.1231742744
 C       -10.3164022053        1.9971539482        2.2252837436
 O        -9.6276989783        2.0080193598        1.2211593078
 C       -11.2420653407        3.1822719864        2.5986169884
 C       -10.1658758169        4.2906747391        3.0514859383
 O        -9.5471901421        4.9629010905        2.2322615194
 C        -9.8502184628        4.4769957837        4.5300554780
 C       -11.9441898824        3.7140801709        1.2324921852
 C       -12.2601346134        2.8130285642        3.7398368565
 C        -6.1834995131       -1.3053569535        3.9924847530
 C        -5.9753172343        0.6315062719        5.6029125718
 C        -3.9533025415        3.4841283328       -1.0801686109
 C        -5.9022319278        5.1078196826       -1.1766854991
 C        -7.9937728829        0.6166439657       -6.0714209675
 C        -7.5372791790        3.1174632093       -6.6473077122
 C       -12.7823184503        6.5141823861       -3.7190096748
 C       -10.4110830531        7.5245835741       -3.7103707050
 C       -15.4849368186        8.5985582021        0.1641010954
 C       -16.6008667857        7.2951142246        1.9846228486
 H       -17.4254812773        4.6711039127       -0.2641853426
 H       -16.3817376010        4.5642940010        1.2292505872
 H       -15.7318159672        4.0214522741       -0.3587162492
 H       -12.1483223004        7.0449887354        1.4807735557
 H       -13.1482703550        8.3559895855        0.9763237960
 H       -13.6280813426        7.2352225362       -1.2033506377
 H       -12.7769291868        5.7840183991       -0.8069387040
 H       -11.0051558873        4.7383846050       -5.0120220275
 H       -11.7280328826        3.5476733252       -4.0613773935
 H        -9.5086719462        3.0427107179       -3.0288280142
 H        -8.7763153350        4.2540098975       -4.0330157480
 H        -6.2740819900        0.2251231933       -4.0690207903
 H        -7.6090170472        0.7259037601       -3.0888492533
 H        -4.8035962293        1.3937619451       -2.4536462339
 H        -5.9819407017        0.6573297775       -1.4989948429
 H        -4.0872190920        3.7511128557        1.9984898012
 H        -4.0189400380        2.1925245720        1.2340077000
 H        -5.9258857970        3.0302055758        3.5609881208
 H        -4.3930282900        2.2245927583        3.9869842900
 H        -9.1795457140       -1.1925268249        3.4022683048
 H        -8.4198177004       -0.1420981797        2.2770117024
 H       -10.5734080147        0.8447394451        4.1647967529
 H       -10.9787147197       -0.0356214904        2.6896939142
 H        -9.2252376889        3.6176574099        4.8236916039
 H       -10.7174961930        4.6405931029        5.1260451481
 H        -9.2330762015        5.3992075439        4.6637257302
 H       -11.2208321774        4.0128958657        0.4537719152
 H       -12.4266395153        4.6619024135        1.4767099048
 H       -12.6677309277        3.0033421185        0.7916970510
 H       -12.7840781775        3.7505722455        3.9665558808
 H       -11.7112693740        2.3826795912        4.5903177362
 H       -12.8950389266        1.9206566449        3.4234648188
 H        -5.1407306168       -1.5842231473        4.2014081901
 H        -6.4313101293       -1.4687451559        2.9609719121
 H        -6.9051155368       -1.8826482305        4.6423890598
 H        -6.4050954450        0.0257738796        6.4241461697
 H        -6.3764010264        1.6352478058        5.7857735498
 H        -4.9307976409        0.6970610671        5.7025544159
 H        -3.6395491573        2.4349809977       -0.8436789741
 H        -3.4108502330        4.1756734700       -0.4484043483
 H        -3.8744315064        3.6568678357       -2.1649637156
 H        -5.1860878409        5.8585069417       -0.7846328262
 H        -6.8828331190        5.3226596342       -0.7926651401
 H        -5.9478130200        5.1314800011       -2.2540987301
 H        -6.9270362172        0.3725857493       -6.3588831064
 H        -8.5419076948        0.5767263851       -6.9618470835
 H        -8.3431820827       -0.1549538837       -5.3385059955
 H        -6.7528905209        2.8000916350       -7.3432963316
 H        -7.1587852450        4.0310130320       -6.1431640221
 H        -8.4614112737        3.4106991249       -7.1885749304
 H       -12.5846056446        6.0562754063       -4.6872114065
 H       -13.2880849012        7.5262002721       -3.7731089558
 H       -13.4455014350        5.8347889712       -3.1202452111
 H        -9.9675258161        6.9167438171       -4.5873645720
 H        -9.6786597306        7.8746306474       -3.0089555999
 H       -11.0140933650        8.3769433793       -3.9853242451
 H       -15.1579858206        8.6365045516       -0.9094300946
 H       -14.7960516212        9.2777880087        0.6249328499
 H       -16.4341084585        9.1481576826        0.1346930634
 H       -16.6968441659        6.4095142903        2.6211860521
 H       -17.6160697278        7.4711737266        1.6723579377
 H       -16.3521429369        8.2024288984        2.4996900017
 Na       -9.0203273708        3.9111389841        0.0264165537
