117

 C       -16.4980170916        4.9540195783        0.2944959698
 C       -15.9411786625        6.2396718311       -0.3522400412
 O       -15.8460428672        6.4059164736       -1.5594273849
 C       -15.5017640068        7.3545430796        0.6274872664
 C       -14.1100361311        6.8377536932        1.2190953622
 O       -14.2167416687        5.8514140804        1.9689315472
 C       -12.8394499907        7.3968684836        0.7298995779
 C       -12.7569057790        6.9943611050       -0.7647119672
 C       -11.4780546701        7.3002432034       -1.4746439140
 O       -10.6100198693        7.9943550506       -0.9918700123
 C       -11.4702032355        6.7263195563       -2.8892309827
 C       -10.8485036379        5.2940296944       -2.6382540633
 O       -10.3713043790        5.1707882166       -1.4781996081
 C       -10.8004502708        4.1879645564       -3.7624524560
 C        -9.4483171183        3.4698880019       -3.8491756806
 C        -9.4582637240        2.3321920246       -4.9946804165
 O       -10.4756062489        1.8323971302       -5.3995961774
 C        -8.0584301495        1.8214236894       -5.5547671856
 C        -6.9955976421        2.0015224395       -4.3818809150
 O        -6.4424176999        3.1040246799       -4.2718324277
 C        -6.7561249965        0.8860023842       -3.3005766688
 C        -5.7778671440        1.4583666357       -2.2360623872
 C        -6.3668397039        2.6976151166       -1.5642385404
 O        -7.6010098504        2.7611771470       -1.5059629001
 C        -5.4418487438        3.6993440623       -0.7495520554
 C        -5.7705491693        3.3122609144        0.7361064073
 O        -6.8696231331        3.6443084022        1.1857872160
 C        -4.7133976209        2.7609480943        1.5847025581
 C        -5.2286354641        2.3267524673        2.9377516159
 C        -5.9949745019        0.9031292387        2.8349489294
 O        -6.1208491285        0.3160136577        1.7657575625
 C        -6.5061007096        0.3625848326        4.2918644469
 C        -8.0278137293        0.8102887901        4.2817469860
 O        -8.4571586519        1.5986551099        5.1246267984
 C        -8.8746047394        0.0536727281        3.2062791555
 C       -10.3199922397        0.5897559767        2.9959245713
 C       -10.3274440003        1.9234485277        2.2478924328
 O        -9.6701867307        2.1408867528        1.2517439298
 C       -11.2190877969        3.1594563964        2.6419035495
 C       -10.2089627808        4.2639121365        3.0407862195
 O        -9.4587819825        4.7281660517        2.1986469011
 C        -9.9466575142        4.5717516325        4.5373102663
 C       -12.0109180976        3.6040349415        1.3474954168
 C       -12.1392284434        2.8238253163        3.9243943062
 C        -6.4517732282       -1.1625369194        4.2226059217
 C        -5.6334386696        0.9065228898        5.4696288153
 C        -3.9968449951        3.3798833091       -1.0661362516
 C        -5.7946111269        5.2040471931       -0.9906072896
 C        -8.0823101563        0.3757856365       -6.0035581504
 C        -7.6100334015        2.7572058340       -6.7558954913
 C       -12.8406042115        6.7857144479       -3.6394651113
 C       -10.4618666671        7.5013699710       -3.7984043171
 C       -15.4711749946        8.7361928152       -0.0481014826
 C       -16.5365785258        7.3900320788        1.7557154288
 H       -17.1262561039        5.2218309587        1.1177614492
 H       -15.6601643049        4.4103400872        0.6706643120
 H       -16.9158678066        4.2632245416       -0.4928750436
 H       -11.9345803883        6.9318836810        1.2314880274
 H       -12.7523194375        8.5024727107        0.7955495697
 H       -13.6326014567        7.4630951197       -1.3457175708
 H       -12.8968157278        5.9647703482       -0.9943898720
 H       -10.9695548385        4.7703362487       -4.7422998714
 H       -11.6728776781        3.5319473584       -3.7313079093
 H        -9.1954049212        2.9533071485       -2.9849200230
 H        -8.6855055387        4.2255333688       -4.0465895228
 H        -6.3535271758       -0.0668114175       -3.7162157699
 H        -7.6917260990        0.6341463037       -2.8094461178
 H        -4.8033802643        1.6311709164       -2.7934947794
 H        -5.6146261685        0.6569462632       -1.4409659299
 H        -3.8735593343        3.4471138246        1.6102287831
 H        -4.3285187665        1.8331747347        1.1288016031
 H        -5.9868080524        3.0124406688        3.3129634191
 H        -4.4188693862        2.3537599874        3.7157259219
 H        -9.0040701844       -1.0122722336        3.6815548045
 H        -8.2994175276       -0.1982933556        2.3112964820
 H       -10.8066949574        0.6615934332        3.9864670929
 H       -10.8179129256       -0.2143931151        2.4866176180
 H        -9.6271313673        3.6277137279        5.0549929820
 H       -10.7856540788        5.0278493883        4.9990388079
 H        -9.1562212614        5.3195396098        4.5514924173
 H       -11.3335183037        4.0308959315        0.6858796636
 H       -12.8611446018        4.3125046435        1.4139027214
 H       -12.3584305164        2.6657908141        0.9213887710
 H       -12.7893232864        3.6108652191        4.1150649586
 H       -11.4919441135        2.6785573624        4.7965609486
 H       -12.7291545255        1.9321812117        3.6392959648
 H        -5.4320590847       -1.4981250019        4.2837702614
 H        -6.8253268832       -1.4718409207        3.2977051546
 H        -6.9897868173       -1.5334275688        5.1015787851
 H        -5.9873152055        0.5511000982        6.4051069842
 H        -5.6629257309        2.0348929654        5.5256385944
 H        -4.6138777172        0.5553665449        5.3895735658
 H        -3.7813820155        2.4564937331       -0.6406673742
 H        -3.4159008464        4.1661319083       -0.5400588494
 H        -3.8388162792        3.3602020475       -2.1318650045
 H        -5.0996282943        5.7790567006       -0.3978417355
 H        -6.8725038963        5.4191385115       -0.8343008597
 H        -5.5365648172        5.4799370582       -2.0241457747
 H        -7.2255905303       -0.0537389066       -6.5003980272
 H        -8.8359489068        0.3628347041       -6.7717625183
 H        -8.4413825056       -0.2209118431       -5.1721985079
 H        -6.6778726527        3.2326142636       -6.4582833057
 H        -8.3590893722        3.5017525281       -7.0054331296
 H        -7.5161602672        2.1915225908       -7.6488213226
 H       -12.7756038487        6.5188898543       -4.6455173661
 H       -13.2736292976        7.7328573055       -3.4010318147
 H       -13.5256842281        6.0135511182       -3.2517491642
 H       -10.6017411717        6.9899673150       -4.7742266854
 H        -9.4865923303        7.4726237183       -3.4011495533
 H       -10.8075407215        8.5115143316       -3.9224232380
 H       -15.1542805721        8.8180492457       -1.0725639243
 H       -14.9904462474        9.4903466484        0.4876454134
 H       -16.5022933310        9.1256096101       -0.1581369610
 H       -16.5605238590        6.5071832417        2.4160182296
 H       -17.5466238883        7.4106837677        1.3290717637
 H       -16.4336830888        8.2708466770        2.3795187495
 Na       -8.9374042809        4.0059305294        0.0242920323
