117

 C       -13.0619699801        6.1528433110       -7.0024868622
 C       -11.7966423551        6.9414561056       -6.5460257306
 O       -11.0031244720        6.3801894271       -5.8797435784
 C       -11.7093646134        8.3835770522       -7.0459858164
 C       -11.2541714652        9.1584793599       -5.7086696108
 O       -11.9480854570        9.9913102074       -5.1878106053
 C        -9.8398274605        8.8522060459       -5.1639320006
 C        -9.5724875638        8.9857193041       -3.6205936079
 C        -8.1428236649        8.4090805042       -3.4058986389
 O        -7.1735707944        8.6755769765       -4.0370086680
 C        -7.8909387809        7.6187277860       -2.0317155598
 C        -8.9642299777        6.6263014975       -1.7341662587
 O       -10.0104395950        6.9711938368       -1.1447877097
 C        -8.7884933159        5.2058102601       -2.3375448662
 C       -10.1471168597        4.5531721783       -2.5821426524
 C       -10.4797945148        3.2692141673       -1.8027366741
 O        -9.6624842517        2.5507282592       -1.3429544160
 C       -12.0198486795        3.0332010717       -1.7808145536
 C       -12.4281290683        2.9006165281       -0.2463421166
 O       -12.1517797822        1.8532880987        0.2691712871
 C       -13.1236345412        4.1120484461        0.5141489177
 C       -12.8556007250        3.8654583082        2.0079235475
 C       -11.3698675073        4.2238822951        2.3583090813
 O       -10.6698211130        4.2989895010        1.3520214128
 C       -10.8005257598        4.3434003187        3.7685182686
 C       -10.2774672550        2.9114814004        4.2215071671
 O        -9.8443317914        2.1373016209        3.3730409342
 C       -10.0676909987        2.6545569923        5.7228799439
 C        -9.1640194919        1.4301852968        6.0253452917
 C        -9.9167672715        0.1004466177        5.7502303797
 O       -11.0587750506        0.0904527125        5.3723173404
 C        -9.1182381954       -1.2762381699        5.7176715595
 C        -8.6424718796       -1.3331540572        4.3049679570
 O        -7.6902849706       -0.5305720825        4.0753081945
 C        -9.2208655111       -2.0978140677        3.1425679525
 C        -8.3540718407       -2.1624377663        1.8977961466
 C        -8.1683884275       -0.6625296445        1.4502968647
 O        -9.1787246437       -0.0510209288        1.3084325621
 C        -6.7386361647       -0.0993583061        1.0150092266
 C        -6.5046869156        1.3915205124        1.3787276738
 O        -7.3856424282        2.2450983085        1.3727634737
 C        -5.0011964021        1.9098682543        1.6029123282
 C        -5.6115561141       -1.0041890603        1.5191995996
 C        -6.7172225165       -0.0649601491       -0.5213478882
 C        -7.8075075316       -1.3152072184        6.5159138633
 C       -10.0802398447       -2.4286161627        6.0766580176
 C        -9.5877847497        5.2363295790        3.7381461099
 C       -11.7949802528        4.9403629567        4.7906984749
 C       -12.9072790311        3.9084154675       -2.6874686502
 C       -12.1411869808        1.6328343448       -2.4145036356
 C        -6.4815295134        6.8492728204       -2.0305048810
 C        -7.7070043875        8.7508331742       -0.8872229416
 C       -10.6311585363        8.4990668508       -8.1323455051
 C       -13.0430494808        8.9415632477       -7.5313523999
 H       -14.0006268708        6.6070035916       -6.7106277767
 H       -13.2026015792        5.1480250583       -6.5686783101
 H       -13.1885789626        6.0916383924       -7.9883982723
 H        -9.1876394195        9.5826088443       -5.5962318529
 H        -9.5170060549        7.7993733015       -5.5424172907
 H       -10.2395803849        8.3441559500       -3.0450666409
 H        -9.7166877377        9.9853119792       -3.1592030640
 H        -8.1773560864        4.5806668673       -1.6789818848
 H        -8.2125991756        5.3717638321       -3.3068030945
 H       -10.0719870630        4.2859213392       -3.6106009383
 H       -10.9095527935        5.2283240490       -2.4667977742
 H       -14.1607546694        4.0161712142        0.2208212119
 H       -12.8048832000        5.0942589770        0.3022029778
 H       -13.0189007992        2.8211901497        2.2082661209
 H       -13.4967317894        4.4296429974        2.7684338048
 H       -11.0613237928        2.4430673499        6.1746211942
 H        -9.7716410851        3.5250028554        6.2877007983
 H        -8.8303454969        1.4073775302        7.0476086597
 H        -8.2862739714        1.2934947838        5.4448424559
 H       -10.1371220295       -1.5073425540        2.8295707005
 H        -9.7108986174       -3.0004014418        3.4932048317
 H        -9.0401901732       -2.6826422389        1.1786825666
 H        -7.4393131562       -2.7146573763        2.0439011847
 H        -4.4656931207        1.3226575884        2.3138928408
 H        -5.1087235072        2.9740072824        1.8860481438
 H        -4.3676725463        1.8381147311        0.7348910154
 H        -5.8568303716       -2.0036713956        1.2468054583
 H        -5.5025685350       -1.1246111391        2.6611827311
 H        -4.6419532381       -0.7149192143        1.1153968873
 H        -6.8879254066       -1.1147825098       -0.8460376401
 H        -5.8246164936        0.3750163462       -0.9040688489
 H        -7.5492310748        0.4552434843       -0.8697658103
 H        -7.8559745993       -1.2250871936        7.5593202313
 H        -7.2458906991       -0.5421953664        6.0441633458
 H        -7.2299033075       -2.2473000398        6.3638541481
 H       -10.5012469028       -2.2310589284        7.0629573746
 H        -9.5030038194       -3.3284637892        6.0809721037
 H       -10.8449007002       -2.4706919576        5.3339798821
 H        -9.8819505486        6.2640179052        3.4125056503
 H        -8.9631061165        4.8863431596        2.8999824404
 H        -9.0017221705        5.2663405375        4.6226305040
 H       -12.5787203883        5.4241429434        4.3046462991
 H       -11.3415035445        5.7639246408        5.3015835992
 H       -12.2030550040        4.1373702219        5.4386751997
 H       -13.8540397438        3.4168236927       -2.9009203330
 H       -12.3206844482        3.9782224077       -3.6470429792
 H       -13.1546147868        4.9257182681       -2.3361629018
 H       -13.2109008580        1.4658728625       -2.5139391992
 H       -11.8437997714        0.9388471257       -1.6299614253
 H       -11.6602774748        1.6440506363       -3.3647347747
 H        -5.7035999162        7.5798354437       -2.0010637535
 H        -6.4241725747        6.3268381580       -2.9930314318
 H        -6.3672843377        6.1240990468       -1.2344122654
 H        -7.1413978730        9.6140122487       -1.2230439493
 H        -7.1158416388        8.2683638033       -0.0959752539
 H        -8.6845598607        9.1325358270       -0.6897702861
 H        -9.7056657404        8.2651364588       -7.5886084344
 H       -10.5958520069        9.5814580676       -8.5014041137
 H       -10.9090066587        7.8079826217       -8.8592495608
 H       -13.8693662373        8.3768130300       -7.2091084004
 H       -13.1010335433        8.8973870551       -8.6397728184
 H       -13.2696133503       10.0171184796       -7.3954550604
 Na       -9.5715046287        2.1565351422        0.8787172694
