117

 C       -17.0013173935        5.3085348641        0.0858823040
 C       -16.2798909813        6.6229817820       -0.2618396141
 O       -15.8363410844        6.7592443748       -1.3731407599
 C       -15.9470938549        7.7246840665        0.8159605909
 C       -14.3370264393        7.3656101388        1.1016925853
 O       -14.0417147903        6.4647991205        1.8961702607
 C       -13.1909919042        7.9279962647        0.2099059142
 C       -12.6863204700        6.9325405905       -0.8385926705
 C       -11.5743947548        7.5805537746       -1.7404313980
 O       -11.1511246235        8.6509060979       -1.4597315186
 C       -10.9528040997        6.7399536671       -2.9722549684
 C       -10.4196386480        5.3126366618       -2.6593031760
 O        -9.8541406413        5.0693287785       -1.5692741653
 C       -10.6960594019        4.1401138436       -3.6577907272
 C        -9.3602764843        3.4190719611       -4.0507637389
 C        -9.4788207906        1.9658330171       -4.5134582330
 O       -10.4032820013        1.2419562216       -4.1738493057
 C        -8.2636137714        1.2795204463       -5.3877680117
 C        -6.9576196946        1.5032032137       -4.4734641261
 O        -6.2405626211        2.5179461490       -4.6496943091
 C        -6.6213478236        0.5107377833       -3.3583308015
 C        -5.7102499938        1.2378291121       -2.3507456668
 C        -6.4187203340        2.2988896617       -1.5098015469
 O        -7.6136738655        2.2621435355       -1.4483774813
 C        -5.5888699713        3.4339481029       -0.8326940954
 C        -5.6689170159        3.2881250463        0.7794113796
 O        -6.7451590749        3.5178981943        1.3438641356
 C        -4.5295391578        2.8343549016        1.5782890481
 C        -5.0068451808        2.3445057806        2.9455023624
 C        -5.6480265529        0.8864564851        2.9509288468
 O        -5.7319716889        0.1472694595        1.9980669202
 C        -6.4835961589        0.6124699013        4.2212567371
 C        -7.8519525424        1.0806843218        3.6508434702
 O        -8.2181748836        2.2336850674        3.6754761041
 C        -8.8591506118       -0.0225583715        3.1923623753
 C       -10.2713301519        0.6157140429        3.2154302211
 C       -10.3486769836        1.9548746726        2.3992952396
 O        -9.6635971736        2.0513605871        1.3846476193
 C       -11.2248661635        3.1195630298        2.8468062596
 C       -10.2608244940        4.4141389539        2.9720428435
 O        -9.4750000089        4.5938276877        2.0822077990
 C       -10.1101008807        5.0890978888        4.3640443772
 C       -12.0766279364        3.4068095539        1.6291769846
 C       -12.0440650405        2.9206055778        4.1421273196
 C        -6.4398035893       -0.9035677958        4.5990733243
 C        -6.2690058393        1.4282005726        5.4918105910
 C        -4.1370054003        3.2783635647       -1.1860354384
 C        -6.1090971346        4.8222260807       -1.1198887452
 C        -8.5432179893       -0.2397975285       -5.5478593257
 C        -8.0792833521        1.9890551233       -6.7796360597
 C       -11.9808857025        6.7637014721       -4.0883163364
 C        -9.8366714755        7.7173702768       -3.4036652697
 C       -16.0168065405        9.0445563084        0.1241380042
 C       -16.7068182392        7.6923695533        2.1160673468
 H       -18.0890292367        5.3695907107       -0.0957702726
 H       -16.7691118332        5.0127335806        1.0993584008
 H       -16.5922130411        4.5402804762       -0.6467864870
 H       -12.4825827009        8.2527869893        0.9623604081
 H       -13.4700972947        8.8285156519       -0.2949183525
 H       -13.5469092453        6.4061273007       -1.2975401490
 H       -12.1224965252        6.1736188277       -0.2844698459
 H       -11.1378852086        4.6250123193       -4.5595029199
 H       -11.3744991919        3.4776052186       -3.2350343568
 H        -8.8218543233        3.3048857169       -3.0963616838
 H        -8.8485942914        4.1288196305       -4.7461746970
 H        -6.1918620395       -0.3707949029       -3.7615244191
 H        -7.5543615784        0.2134627732       -2.8217310689
 H        -4.9303459950        1.6317356843       -2.9640682067
 H        -5.3518430304        0.5578755713       -1.6475839198
 H        -3.7843311706        3.6839212389        1.6994472922
 H        -4.0108891747        1.9655382960        1.1403638740
 H        -5.7531800668        3.0619006700        3.3537505414
 H        -4.1537279712        2.4075524398        3.6529870556
 H        -8.7770852650       -0.9065868817        3.7976889401
 H        -8.6430260958       -0.3093705877        2.1913051145
 H       -10.7436247613        0.5952598099        4.2261713033
 H       -10.8815938162       -0.1473835145        2.7213717788
 H        -9.1594525254        4.6219001654        4.7602018576
 H       -10.9155382794        4.9862670184        5.0794906019
 H        -9.8555888198        6.1417392482        4.1414319923
 H       -11.4225828891        3.7957638679        0.8849486685
 H       -12.7872542388        4.2456357990        1.8624603223
 H       -12.6801522999        2.6097813383        1.1834809109
 H       -12.5726630525        3.8292568976        4.3855501713
 H       -11.3035727527        2.5390317779        4.9054140398
 H       -12.7859198244        2.0817232366        3.9342052127
 H        -5.5105256496       -1.0782275457        5.1006740481
 H        -6.5419081139       -1.5051129081        3.7473916546
 H        -7.2663359460       -1.1573079292        5.2780083385
 H        -6.9528587013        1.0795060217        6.2003131613
 H        -6.5868912779        2.4818098274        5.3348677985
 H        -5.2889087195        1.4124198607        5.9241276934
 H        -3.8499679829        2.2554191458       -1.0536503611
 H        -3.5405111659        3.8671424866       -0.4029211073
 H        -3.8706971787        3.6776879229       -2.1935565723
 H        -5.4131556059        5.5274279202       -0.6906597526
 H        -7.0671364203        5.0175811497       -0.5823640083
 H        -6.2019627440        5.0153212076       -2.1931795451
 H        -7.6453481562       -0.8476801537       -5.5551339776
 H        -9.1014170903       -0.4303753919       -6.4531993640
 H        -9.2064497520       -0.6381419457       -4.7785113325
 H        -9.1021878019        2.1404065835       -7.2156035239
 H        -7.5456504200        1.3699261761       -7.4885012511
 H        -7.6525869864        2.9552130759       -6.6132497271
 H       -11.6481941732        6.5557502792       -5.0945286576
 H       -12.3734926454        7.7551615999       -4.2795387551
 H       -12.9125008035        6.2010723366       -3.7912476141
 H        -9.3248049051        7.3234766588       -4.3121302709
 H        -9.1038851150        7.8230171204       -2.6255786344
 H       -10.3166301491        8.6598053980       -3.6729726721
 H       -15.7371056031        9.0842979175       -0.9307960552
 H       -15.4193881869        9.7810610043        0.6069511647
 H       -17.0886207427        9.3919282710        0.1774925867
 H       -16.2774240338        6.9853083913        2.8160880688
 H       -17.7575788610        7.4874070569        1.9092572865
 H       -16.7426811937        8.6167526828        2.6665134153
 Na       -8.8551199669        3.6743022260       -0.0242769030
