117

 C       -17.1152547387        5.5893438139        0.1697445770
 C       -16.2350480995        6.7218627479       -0.2488705092
 O       -15.7271549910        6.7410217117       -1.3951505020
 C       -15.8970298042        7.8138202758        0.8096702313
 C       -14.3405902350        7.4595990582        1.0828898239
 O       -14.0969577339        6.5467824014        1.8391354773
 C       -13.3400274789        8.0075169809        0.0444327755
 C       -12.6710247252        6.8941745886       -0.8734420019
 C       -11.6232443083        7.6030812705       -1.7395478187
 O       -11.3096445377        8.7876716851       -1.6015591011
 C       -10.8159633638        6.7573210181       -2.9767258557
 C       -10.3695880864        5.3196864301       -2.6228069669
 O        -9.7305067173        5.2600426202       -1.6158999969
 C       -10.6055247167        4.0501080378       -3.4882224195
 C        -9.2951506179        3.3376205623       -4.0055027849
 C        -9.4818855443        1.7936762437       -4.3188885361
 O       -10.3973975853        1.2202754150       -3.8535165716
 C        -8.3765661322        1.1421260839       -5.1927850481
 C        -6.9768181382        1.4478330952       -4.4854152098
 O        -6.2271752520        2.3174727496       -4.8424534623
 C        -6.6019048021        0.4859670683       -3.3459281100
 C        -5.6978439050        1.0779819996       -2.2260193307
 C        -6.3386639794        2.2460727088       -1.5181948598
 O        -7.5721111138        2.1747563746       -1.3044003308
 C        -5.4677570767        3.3151616490       -0.9031913078
 C        -5.7591309582        3.2104747827        0.6486287756
 O        -6.8930360162        3.2922851073        1.0584491581
 C        -4.5877042238        2.8565398430        1.6392288219
 C        -4.9303165675        2.3984766132        3.0990685470
 C        -5.6364625719        0.9840073859        3.0814130205
 O        -5.4030400663        0.2349476836        2.1022127889
 C        -6.5248091141        0.6572865857        4.2988752948
 C        -7.9858215040        1.0901373204        3.7612793899
 O        -8.2388109079        2.2726720656        3.5405709634
 C        -8.9775309154        0.0534125339        3.3716949400
 C       -10.4134179397        0.6017421196        3.0979367489
 C       -10.4026817427        1.8066052014        2.2171531498
 O        -9.8728945756        1.8452916981        1.1193420472
 C       -11.1662563504        3.1581353287        2.6936553503
 C       -10.1932823314        4.4634030251        2.8885238044
 O        -9.5338227667        4.8460909151        1.9297694471
 C       -10.1027153712        5.1692849203        4.2277892381
 C       -12.2795319041        3.6618563496        1.7991388036
 C       -11.9118133790        2.8157306102        4.0377503856
 C        -6.3713586327       -0.8009414579        4.6505870421
 C        -6.0625739126        1.5528595487        5.4543485768
 C        -4.0045205966        3.3048888504       -1.2817700356
 C        -6.0613892388        4.6625278020       -1.3559887404
 C        -8.5575166711       -0.3472510452       -5.3496108493
 C        -8.3329732619        1.9137730727       -6.5871578857
 C       -11.8239086424        6.8438812971       -4.0574442681
 C        -9.5030299135        7.4530221499       -3.3564431118
 C       -16.2290224836        9.2306688928        0.2644521804
 C       -16.6562555913        7.5791247203        2.1294925708
 H       -18.1383396051        5.8554026795       -0.0001965698
 H       -16.9172646286        5.3478134789        1.2115349491
 H       -16.9662755021        4.7928552147       -0.5411142739
 H       -12.6630115103        8.6350264534        0.6554243241
 H       -13.8560378311        8.7258214310       -0.6388697540
 H       -13.3838495505        6.4600117150       -1.5406714965
 H       -12.2394026265        6.0745069503       -0.2754070501
 H       -11.3516007902        4.2539046088       -4.2639523974
 H       -10.9825251552        3.2474182367       -2.7129082052
 H        -8.5139163535        3.4378496648       -3.2077035084
 H        -9.0049561650        3.8593141881       -4.9132153211
 H        -6.0596435789       -0.3636204319       -3.8507703641
 H        -7.4416349719        0.0083923822       -2.8695647440
 H        -4.7766534515        1.3821467579       -2.7419670385
 H        -5.4641814296        0.2327803682       -1.4924925063
 H        -3.9228397209        3.6753469416        1.7071140959
 H        -4.0229635871        2.0062604146        1.3026331694
 H        -5.3978383872        3.1817218301        3.6600187488
 H        -3.9788653881        2.2708644410        3.5503603510
 H        -8.9819405742       -0.6756873423        4.1773078803
 H        -8.5486491990       -0.4352166277        2.4388815677
 H       -10.8128253983        0.9151575689        4.0221104697
 H       -11.0388049487       -0.2559815637        2.8312049843
 H        -9.4881951413        4.5211370944        4.8016428550
 H       -11.1169397515        5.1968123930        4.6768449385
 H        -9.6203921389        6.1199769835        4.1386279152
 H       -11.9631175405        3.7456094071        0.7413689712
 H       -12.6896702940        4.6047652463        2.1447545500
 H       -13.1108975391        2.9292046182        1.7489031106
 H       -12.6007097063        3.6718111990        4.1341742304
 H       -11.2666221161        2.7213293675        4.8813256781
 H       -12.4510586795        1.9228915462        3.9627164846
 H        -5.3371199242       -1.0022241739        5.0085945731
 H        -6.7667452077       -1.4213212086        3.7743034520
 H        -7.0841082622       -1.0655742319        5.4374255517
 H        -6.5324977826        1.2750538198        6.4232168153
 H        -6.3710432305        2.5635108618        5.3109094536
 H        -4.9562783396        1.5168594129        5.5586563622
 H        -3.3982964363        2.4570905556       -0.9127257225
 H        -3.5307590125        4.2019846142       -0.9783166206
 H        -4.0455827567        3.2808306913       -2.3542952355
 H        -5.7613853812        5.4960059319       -0.7074526920
 H        -7.1301186864        4.7180207862       -1.3518333361
 H        -5.7066495214        4.7677749702       -2.3665539813
 H        -7.7810775958       -0.7903559893       -5.9691948112
 H        -9.5942834423       -0.5560650624       -5.7657692772
 H        -8.5276627158       -0.8986101020       -4.4186991503
 H        -8.7786127971        1.2731241391       -7.3230380503
 H        -7.2756524065        1.8824061768       -6.8876057492
 H        -8.7147942556        2.9586510252       -6.6032201590
 H       -11.4290112638        6.4816547189       -5.0241201494
 H       -12.0906686973        7.8627345747       -4.3362035198
 H       -12.7739713634        6.4233773225       -3.8786036415
 H        -9.2514964112        7.3192879153       -4.3919649032
 H        -8.6384263106        7.0241859532       -2.7673387551
 H        -9.6579480363        8.5302136932       -3.1090572351
 H       -15.8468108186        9.4103918106       -0.7425312696
 H       -15.8483961484       10.1263617967        0.8542934041
 H       -17.2936783135        9.2493143762        0.1739615279
 H       -16.3294243468        6.6906408975        2.7076598394
 H       -17.7392465283        7.5060657416        1.9597744671
 H       -16.5854523657        8.4830943986        2.7875776692
 Na       -9.0181687699        3.6997161464       -0.0168306751
