117

 C       -17.3815996405        5.6229177811        0.0279004178
 C       -16.3394504925        6.7227191544       -0.3122907037
 O       -15.7978076155        6.7405164227       -1.3574624231
 C       -15.8788286556        7.7529872290        0.7756005472
 C       -14.3385523022        7.5018862660        0.8705559684
 O       -13.9178403054        6.8077838922        1.7538696414
 C       -13.2874968100        7.9870972927       -0.2000483476
 C       -12.5475036726        6.9156062344       -0.8975298488
 C       -11.4745949104        7.5941623378       -1.8097459602
 O       -11.2255388846        8.7611746310       -1.8151382574
 C       -10.7273555339        6.6847203738       -2.9447808047
 C       -10.3938440616        5.3068818083       -2.4881525071
 O        -9.7375484249        5.2306685356       -1.4135024924
 C       -10.7022267230        3.9973388129       -3.2079172082
 C        -9.3246798073        3.3873703873       -3.7089814390
 C        -9.4187212660        1.9142297405       -4.0416269424
 O       -10.3471947227        1.2411357379       -3.6231753074
 C        -8.4348121862        1.1622201199       -5.0873861354
 C        -7.0310801744        1.3039529669       -4.4115356560
 O        -6.2374113992        2.1556609061       -4.7568495236
 C        -6.6797283273        0.3501446800       -3.2486101270
 C        -5.6266591838        1.0177841001       -2.3612728109
 C        -6.3031596751        2.1216600705       -1.6617540006
 O        -7.4878987528        2.1443973187       -1.4852369268
 C        -5.4636319344        3.2857152722       -0.9676113565
 C        -5.7098099792        3.1657366331        0.6007731876
 O        -6.8035698750        3.2408414067        1.1037996860
 C        -4.5429851786        2.9024111610        1.4160098131
 C        -5.0358037028        2.5939470982        2.8710674169
 C        -5.4948265588        1.2114426501        3.0253986320
 O        -5.2254270795        0.2798861560        2.3557245095
 C        -6.5058277267        0.8097073528        4.3086491930
 C        -7.9675415651        1.1922609042        3.8795755977
 O        -8.2915822572        2.3433935923        3.8229637474
 C        -8.9509488054        0.0907462819        3.2770752699
 C       -10.3639000040        0.5835294022        2.9861005095
 C       -10.5381072148        1.8892459214        2.1786676763
 O       -10.2362089083        1.8640082981        1.0008435621
 C       -11.1254188707        3.1755822203        2.7380857218
 C       -10.1765211105        4.3918698886        2.8002430844
 O        -9.6918132509        4.8281881584        1.7868990706
 C       -10.0177169530        5.2129114265        4.1554773546
 C       -12.1579696622        3.5870128578        1.5658235075
 C       -11.8506664138        3.0558634858        4.1121759071
 C        -6.4161910929       -0.7517145718        4.4866384983
 C        -6.2478666161        1.5889586916        5.6381533526
 C        -3.9970128648        3.2997228565       -1.2497595970
 C        -6.0365132642        4.6396651770       -1.4886626445
 C        -8.9468214757       -0.2726791440       -5.2134672541
 C        -8.5034216662        1.7537636507       -6.4837195523
 C       -11.6541859734        6.7019957130       -4.1436271889
 C        -9.4795190625        7.4718922938       -3.3419988145
 C       -16.1034821042        9.2485022216        0.3805996341
 C       -16.5255145543        7.5433193234        2.1788405136
 H       -18.2463862671        6.0065504988        0.6135480052
 H       -16.8353364348        4.9045695883        0.6434300247
 H       -17.8261434953        5.2769573991       -0.8768958521
 H       -12.5938508279        8.7431109831        0.1712338787
 H       -13.8658604509        8.4292023114       -0.9911948968
 H       -13.1640563444        6.2681904539       -1.6168635589
 H       -12.0711684971        6.2191039129       -0.1888123562
 H       -11.3848244009        4.1684956220       -4.0170204547
 H       -11.0516222904        3.3285206649       -2.5207733136
 H        -8.5669158266        3.4633679452       -2.9542763178
 H        -8.9736581817        3.9442726451       -4.5842658786
 H        -6.2868797119       -0.5777643678       -3.6372561498
 H        -7.5399274289        0.0243462089       -2.6147579858
 H        -4.7172627994        1.2629117222       -2.9434154390
 H        -5.3586288463        0.2802901742       -1.6195721368
 H        -3.7649050262        3.7130690298        1.3961023133
 H        -4.1300471314        1.9263101940        1.0821747836
 H        -5.8534858747        3.3154845229        3.1155103083
 H        -4.2560869403        2.7761733967        3.6959183406
 H        -9.1163133814       -0.7010723533        4.0768636495
 H        -8.4500706994       -0.3457205177        2.4296784818
 H       -10.8733340579        0.6000943593        3.9886975750
 H       -10.8518478734       -0.2331870734        2.4482448247
 H       -10.0061075788        4.5096637283        5.0005947862
 H       -10.8442739469        5.8548056918        4.2241236820
 H        -9.0501549019        5.7378585967        4.1791967850
 H       -11.7086949523        3.5389812043        0.5572010638
 H       -12.5640664233        4.5522929582        1.8076139745
 H       -12.9529451506        2.9030761705        1.4293105063
 H       -12.1867214270        4.0183054874        4.3840629004
 H       -11.2955112270        2.5748986640        4.9147608668
 H       -12.7086175709        2.3677862697        3.9359107682
 H        -5.4202041641       -0.8902532583        4.8395578189
 H        -6.5862051718       -1.2550968989        3.5956158389
 H        -7.1343706289       -1.1875933872        5.1833891577
 H        -6.8233168448        1.1223818614        6.4462679959
 H        -6.5496806559        2.6585808655        5.6138855542
 H        -5.2107709861        1.5457426189        5.8876469011
 H        -3.5794995230        2.3001271934       -1.0507330736
 H        -3.4576805825        3.9974957797       -0.6113903668
 H        -3.7545635943        3.4600872750       -2.3010413589
 H        -5.5879486994        5.4838833268       -0.9709876646
 H        -7.1058344478        4.8118871998       -1.3230113257
 H        -5.8239417194        4.6239162139       -2.5627992958
 H        -8.3482083379       -0.7714352983       -5.9870901697
 H        -9.9415611757       -0.3914309755       -5.4007483810
 H        -8.6566873843       -0.8610463187       -4.3267310975
 H        -8.7218186459        0.9826286699       -7.2126281330
 H        -7.5632574052        2.1990651680       -6.7681025915
 H        -9.2030058704        2.5522463144       -6.4693406958
 H       -11.2977985664        6.2607600529       -5.0404465953
 H       -11.9399509726        7.7381484997       -4.3580766580
 H       -12.6691252972        6.3054614038       -4.0043777016
 H        -9.0556605305        7.0135892664       -4.2760556292
 H        -8.6853620871        7.4366458297       -2.6422632969
 H        -9.8021842186        8.4756723554       -3.4929098297
 H       -15.4952341063        9.4509878592       -0.5059651442
 H       -15.6713483518        9.8252828167        1.1396022767
 H       -17.1489232373        9.5971724213        0.2018995886
 H       -16.5194817651        6.4692971722        2.4267408503
 H       -17.5697681991        7.8434599881        2.2379863680
 H       -16.0212305615        8.1633984986        2.8952885032
 Na       -8.9921537725        3.4583316310        0.0351443526
