117

 C       -17.7293535038        6.0648539006       -0.1180787048
 C       -16.4310597729        6.7820011788       -0.4075836986
 O       -16.0332062137        6.8269012169       -1.5266634473
 C       -15.6607652496        7.6166254457        0.7316381910
 C       -14.1419379866        7.3888250581        0.6069547148
 O       -13.5549364899        6.9724128693        1.6035617421
 C       -13.4529639199        7.9072136510       -0.6250139659
 C       -12.2691412151        6.9488448897       -0.9113378157
 C       -11.2562014725        7.5660468412       -1.9240000061
 O       -11.0501097619        8.7413019363       -2.0158361009
 C       -10.6279317152        6.5697031698       -2.9264552337
 C       -10.3634549507        5.3376377019       -2.1578232402
 O        -9.8041958184        5.4451067568       -1.0695101559
 C       -10.5140214444        3.9554093574       -2.8124174226
 C        -9.4236117779        3.4051232856       -3.6895023696
 C        -9.5800887675        1.8473546288       -3.8107478068
 O       -10.3924676883        1.3272632038       -3.0570060735
 C        -8.7742243116        1.1104755505       -4.8639396405
 C        -7.2486946733        1.1644112008       -4.3170178564
 O        -6.5117675114        2.0260667693       -4.8140856361
 C        -6.6456111282        0.1392024770       -3.2461851220
 C        -5.6233382445        0.8434304058       -2.3766059072
 C        -6.2642963941        2.0666881242       -1.6857587681
 O        -7.4420181875        2.1212124117       -1.6430869618
 C        -5.4351938076        3.2193636092       -1.0194967475
 C        -5.7104671428        3.1973900442        0.5772871031
 O        -6.8384581951        3.3793226384        1.0072276023
 C        -4.5838497777        3.1564321420        1.5313646680
 C        -5.1873736494        2.7700396389        2.9457531303
 C        -5.5170120850        1.3414952943        3.1444968835
 O        -5.0313876566        0.4553949784        2.4987889042
 C        -6.5993063901        0.9495105174        4.3465839588
 C        -8.0073480154        1.3342981707        3.8749967743
 O        -8.5251629137        2.3664551357        4.1508906676
 C        -8.8734889486        0.3588166027        2.9892133976
 C       -10.3468619017        0.7860814532        3.2223155000
 C       -10.6054302267        1.9322717757        2.1546125382
 O       -10.0878173492        1.9026493925        1.0634749542
 C       -11.2771638570        3.2610144226        2.6404789076
 C       -10.1491816098        4.3146364757        2.6002455972
 O        -9.3848344650        4.4419457346        1.6615654592
 C        -9.8201759919        5.1003437305        3.8774990594
 C       -12.4398064988        3.7929942105        1.5780181912
 C       -11.9662856154        3.0645961580        4.0139247399
 C        -6.5712549684       -0.5862980971        4.5666763117
 C        -6.2115286668        1.6269847620        5.7040318685
 C        -3.9343659563        3.0635105225       -1.4718364236
 C        -5.9417563650        4.5971352121       -1.5117067049
 C        -9.2186014314       -0.3641922487       -5.1116399591
 C        -8.8666981573        1.7940611636       -6.1666669539
 C       -11.5290966186        6.4353911920       -4.1535665952
 C        -9.2617342172        7.1831473158       -3.4335666768
 C       -16.0249824935        9.0782952696        0.4125750982
 C       -16.0955559147        7.3213729849        2.2515011257
 H       -18.0823423711        6.1361069847        0.9015603366
 H       -17.5877330334        5.0469322185       -0.4002273073
 H       -18.5003159307        6.5925287760       -0.7241015095
 H       -13.0634411565        8.8900019694       -0.3381722179
 H       -14.1210993886        7.9732282224       -1.5229030795
 H       -12.5967421286        6.0436736119       -1.3406030334
 H       -11.6147272765        6.6827494293       -0.0441241438
 H       -11.5243147861        3.8891806388       -3.4189176265
 H       -10.5696400366        3.2619193208       -1.9538429000
 H        -8.4215714752        3.6668854805       -3.2777036293
 H        -9.4406461251        3.8756263098       -4.6867887858
 H        -6.1958517591       -0.6609362879       -3.7773457252
 H        -7.4615731268       -0.3650447511       -2.6320704454
 H        -4.7600955973        1.0691456836       -3.0710825711
 H        -5.1747287392        0.1132467402       -1.6514024278
 H        -4.1275123181        4.1351063052        1.6241650711
 H        -3.8501456045        2.4389366965        1.2982008578
 H        -6.1049569573        3.3648255269        3.0629142260
 H        -4.5344527531        3.1569702304        3.6758458397
 H        -8.7518680562       -0.7115197316        3.2807049863
 H        -8.7021113803        0.5233735021        1.8833883195
 H       -10.5564716902        1.0937758682        4.2535221953
 H       -10.9790343351       -0.0377786820        2.9853323580
 H       -10.0663584661        4.6457913811        4.8479727392
 H       -10.1919076739        6.0950058715        3.7519022570
 H        -8.7312608568        5.1190026503        3.8323068476
 H       -12.0828401378        4.1004070035        0.6225779651
 H       -13.0059576856        4.6356739837        2.0688307632
 H       -13.1467375770        3.0086378366        1.2768292331
 H       -12.5035467901        3.9622641522        4.2074555388
 H       -11.2692634117        2.9267334491        4.8749041969
 H       -12.7137614478        2.2492510620        3.9777168499
 H        -5.6183503087       -0.9939887977        4.9952725504
 H        -6.7705164367       -1.1560658951        3.6520968831
 H        -7.4384186629       -0.8416861626        5.2688179765
 H        -6.9309998372        1.3632012783        6.4204406850
 H        -6.1258757216        2.7487958669        5.6192991355
 H        -5.2391157542        1.2715949393        6.0821552680
 H        -3.4008508022        2.2389410863       -1.1291607790
 H        -3.4072911056        3.9985614409       -1.1348155459
 H        -3.7854217410        3.0509995694       -2.5397455502
 H        -5.2422557929        5.3418097194       -1.2464734638
 H        -6.8823107862        4.8887147065       -0.9807212337
 H        -6.1377271335        4.6453621349       -2.5975179686
 H        -8.4861490270       -1.1178297072       -5.4743298020
 H        -9.9173023877       -0.3124486779       -5.9247327189
 H        -9.7122719299       -0.7999013576       -4.2116503781
 H        -8.0905793602        1.2929331390       -6.8195365626
 H        -8.6863568581        2.8591334842       -6.0986127768
 H        -9.8557007103        1.6923855134       -6.6136437954
 H       -11.1105319846        5.7740634624       -4.8912515321
 H       -11.9095038738        7.3047747561       -4.6031048662
 H       -12.4450265059        5.8466483301       -3.9157582976
 H        -8.5523673214        6.4012837519       -3.7732530041
 H        -8.7503237804        7.7723161818       -2.6656022990
 H        -9.4619912054        7.8842682459       -4.2763253213
 H       -16.1483821527        9.2163803236       -0.6728022086
 H       -15.3586077719        9.8037918468        0.8707989048
 H       -17.0142412104        9.2745307728        0.9036060429
 H       -15.8614656496        6.2885151378        2.4663678108
 H       -17.1878904244        7.3360841555        2.4222974268
 H       -15.5810890566        8.0657850035        2.8570871040
 Na       -8.9329662159        3.3332748602       -0.2685010765
