117

 C       -17.8930117237        6.1451877885       -0.1064132354
 C       -16.5361184478        6.7973909599       -0.4077873040
 O       -16.0262507442        6.7642374683       -1.5015979165
 C       -15.7398680035        7.6412094741        0.7346530493
 C       -14.1595127679        7.4786566217        0.5753054260
 O       -13.5046896306        6.9506174416        1.4318106733
 C       -13.4564062826        7.8556932178       -0.7475937104
 C       -12.1869253022        7.0321238269       -0.9514903954
 C       -11.2001218245        7.6147834192       -1.9990480234
 O       -11.0268189715        8.8243749134       -2.0671289463
 C       -10.4841410686        6.5439764152       -3.0301516793
 C       -10.2019208330        5.2730650474       -2.1945003051
 O        -9.6780425937        5.4482135419       -1.0603446557
 C       -10.6323886509        3.8470366527       -2.5269430470
 C        -9.6316201322        3.3908728043       -3.5727282724
 C        -9.6792100410        1.8610038445       -3.7161668707
 O       -10.3110809688        1.2482627516       -2.9269412162
 C        -8.7643543221        1.0536402694       -4.8930168707
 C        -7.2365621798        1.1637160810       -4.3986190940
 O        -6.5620404582        2.0342313169       -4.7779439990
 C        -6.7535194477        0.2060604012       -3.2875291829
 C        -5.7092011423        0.8039079268       -2.3670678292
 C        -6.3035773226        1.9713209256       -1.6757884337
 O        -7.5188782815        2.0832189583       -1.6538211835
 C        -5.4042137851        3.2100818769       -1.0382176589
 C        -5.6935449475        3.1735122025        0.5354136883
 O        -6.8683136698        3.3209826262        0.8269011511
 C        -4.5680602225        3.2254310682        1.5490351301
 C        -5.1777662963        2.8398428899        3.0245015679
 C        -5.5114221064        1.3275323329        3.2134461346
 O        -5.0718782301        0.4812048303        2.5213024442
 C        -6.5692112427        0.9396707192        4.3690538059
 C        -8.0246810335        1.3538648339        3.9287311795
 O        -8.4624972759        2.4503814936        4.2525014423
 C        -8.8569616470        0.4111492703        3.0551555618
 C       -10.3159156601        0.7942909224        3.0167186136
 C       -10.5871178561        2.0011099629        2.1484527872
 O       -10.1713592045        1.9180807908        0.9897791096
 C       -11.3345029528        3.2741850869        2.6593954423
 C       -10.0685168642        4.2346198819        2.6902691109
 O        -9.4023540765        4.3433717204        1.6701625048
 C        -9.8535014668        5.1438318763        3.9040993760
 C       -12.2727065807        3.7770917727        1.5612728311
 C       -12.0484185481        3.2173866816        4.0256550132
 C        -6.5203849959       -0.5750638585        4.5967283749
 C        -6.1889652948        1.6956547668        5.6345788873
 C        -3.8883888402        3.0744394360       -1.2546046013
 C        -5.9007327230        4.5400192167       -1.6254590933
 C        -9.2470821790       -0.4229842072       -4.9334593643
 C        -8.9307842003        1.6943356148       -6.2946681891
 C       -11.5715941112        6.4166786804       -4.1338232102
 C        -9.0998835495        7.0854620102       -3.4881750007
 C       -15.9729189646        9.1990316571        0.5513945900
 C       -15.9813973264        7.1820411063        2.1641431620
 H       -18.1351132626        5.9595766920        0.9785791134
 H       -17.7647189606        5.1910748039       -0.6256504013
 H       -18.6582283221        6.7042064925       -0.5195721026
 H       -13.1075117096        8.8974923330       -0.6415356797
 H       -14.0858492319        7.7417230491       -1.6240420764
 H       -12.4023641353        5.9259247558       -1.2338273956
 H       -11.4874113370        7.0215337863       -0.1235999801
 H       -11.6200598332        3.8764384129       -2.9330522589
 H       -10.6726245844        3.2049397864       -1.6734319568
 H        -8.6495526514        3.7163512483       -3.2823556638
 H        -9.7595134931        3.8669846374       -4.5537248246
 H        -6.4941119819       -0.7510475100       -3.7754073193
 H        -7.5954105483       -0.0755235838       -2.6265503134
 H        -4.7260013777        1.0542142004       -2.9105129998
 H        -5.4053908916        0.0230738545       -1.6233116356
 H        -4.1064532618        4.2267336550        1.5684265698
 H        -3.7930752155        2.4826650547        1.3682287837
 H        -6.0030454493        3.5216085622        3.2374590275
 H        -4.3504389268        3.1226662126        3.7727881474
 H        -8.8384319013       -0.5992063097        3.6606519435
 H        -8.4439057999        0.3099997068        2.0293113367
 H       -10.6415803217        1.0320456299        4.0498802256
 H       -10.8985463126       -0.0428567434        2.6295099882
 H       -10.2230151444        4.7034403269        4.8102056313
 H       -10.3911359164        5.9913171770        3.6000026840
 H        -8.8001057559        5.3794236367        4.0648513935
 H       -11.7579024802        3.7625002933        0.5177426685
 H       -12.5275219942        4.7790670804        1.8016136676
 H       -13.1694475228        3.2194516425        1.4006434134
 H       -12.4026796954        4.1816233974        4.3238109087
 H       -11.3994997131        2.9146045686        4.7858704533
 H       -12.9634371537        2.6016339055        3.9844953203
 H        -5.5517782291       -0.9500488132        5.0179235628
 H        -6.6389470280       -1.1256900872        3.6506437379
 H        -7.3623833525       -0.8942029716        5.2816771799
 H        -6.9483327789        1.3491176867        6.4253847610
 H        -6.3584138200        2.7597597026        5.4331402678
 H        -5.2127539848        1.5740577203        6.0416746628
 H        -3.5569790244        2.1261129640       -0.7726747246
 H        -3.3517440329        3.8693023745       -0.8795011511
 H        -3.5264367903        2.9739414960       -2.2586490089
 H        -5.2917093515        5.3998368172       -1.2651315183
 H        -6.9394906392        4.7387472992       -1.4228554770
 H        -5.7850325953        4.5279119178       -2.7205348228
 H        -8.4421060856       -1.0803215673       -5.3559643509
 H       -10.0070034722       -0.5501761607       -5.6256887337
 H        -9.4882285413       -0.8490021894       -3.9238220488
 H        -8.2317164153        1.2348332751       -6.9890132413
 H        -8.8199660423        2.7992694992       -6.2743612398
 H        -9.9446987663        1.4828712064       -6.6605693242
 H       -11.4172951230        5.7406289816       -4.9086966848
 H       -11.8731714473        7.3777470780       -4.6076015383
 H       -12.4837164957        6.0034589594       -3.7268337255
 H        -8.5837785016        6.2014777744       -4.0338510867
 H        -8.5014799166        7.2948786599       -2.6274000707
 H        -9.0602504258        7.9535600720       -4.1211808365
 H       -15.7525057059        9.4289044420       -0.5144078323
 H       -15.3684560503        9.7177103176        1.2476928927
 H       -17.0077585717        9.5378252300        0.7889063822
 H       -15.6191667668        6.1410115096        2.3525848275
 H       -17.0513141433        7.1072171186        2.3075740002
 H       -15.5322348671        7.9549600908        2.7796529278
 Na       -9.0063791588        3.4155778468       -0.3652733667
