117

 C       -17.9081899138        6.2873534190       -0.0397568810
 C       -16.5407789042        6.8914390428       -0.3554912518
 O       -16.0649770508        6.6837620770       -1.5016047986
 C       -15.6807345861        7.6824780927        0.7410987651
 C       -14.1330105017        7.4038491006        0.4241752132
 O       -13.4618179251        6.9034640953        1.3058726869
 C       -13.4185720268        7.8544584998       -0.9313324373
 C       -12.1313828670        7.1398750082       -0.9821552568
 C       -11.1218307511        7.6958257600       -2.0435850587
 O       -10.9324790479        8.8577469729       -2.2068498022
 C       -10.4917847778        6.5513921232       -2.9220373170
 C       -10.2469772930        5.3280457597       -2.0697395441
 O        -9.4504372521        5.4524368125       -1.1541900122
 C       -10.7421213800        3.9153192901       -2.5241797802
 C        -9.7602227178        3.2999322135       -3.6724972584
 C        -9.7251032501        1.7317282353       -3.6930136554
 O       -10.2046617851        0.9779719046       -2.8644976063
 C        -8.8342064177        1.0420768185       -4.8005883321
 C        -7.3532714820        1.2275540955       -4.3604869441
 O        -6.5970854994        2.0941494329       -4.7860654736
 C        -6.8963765837        0.1595629843       -3.3351241442
 C        -5.8041421846        0.8228060413       -2.4179935023
 C        -6.2882081589        2.0202634162       -1.6876397839
 O        -7.5366389162        2.1649501061       -1.5712783522
 C        -5.3641851111        3.1022275549       -1.0352982147
 C        -5.8121777661        3.2677990495        0.4996663133
 O        -6.9757599779        3.2279512338        0.7761884499
 C        -4.7121155159        3.1161208949        1.6355813381
 C        -5.1841684645        2.8427866142        3.0932979160
 C        -5.5756422202        1.3824813617        3.2117909757
 O        -5.0760114516        0.5125217982        2.4506997453
 C        -6.5649553428        1.0035447808        4.3452683766
 C        -7.9964397928        1.4303475136        3.9350724842
 O        -8.3989456994        2.5407600586        4.3259114668
 C        -8.8479560366        0.4097477025        3.2180160980
 C       -10.3786478428        0.6624304284        2.9649979365
 C       -10.6400028109        1.9335010051        2.0921918012
 O       -10.3313624159        1.9084903587        0.9079176861
 C       -11.2725668802        3.3005105934        2.6088204991
 C       -10.0624900258        4.3302306229        2.7568367056
 O        -9.3091098364        4.4448660541        1.8370838575
 C        -9.8642355906        5.2651117907        3.9423667228
 C       -12.1260725458        3.8120188483        1.5148332978
 C       -12.0744158001        3.2336492204        3.9212315416
 C        -6.3675669943       -0.5485611436        4.6199847277
 C        -6.1874948737        1.7986917631        5.6371412144
 C        -3.8505368055        2.9496750418       -1.1372410791
 C        -5.8206386453        4.4066826907       -1.7392238673
 C        -9.2349069283       -0.4352186641       -4.6868444796
 C        -8.9646030600        1.6462167353       -6.2721106022
 C       -11.4631848451        6.3394814284       -4.0820861684
 C        -9.1191517015        6.9900430782       -3.5478639286
 C       -15.9712137055        9.2112179138        0.6615014254
 C       -16.0341919533        7.0886621356        2.1167158099
 H       -18.0379595567        5.9172379723        0.9713926392
 H       -18.0081332453        5.4588979630       -0.7722237296
 H       -18.6712859618        7.0440254055       -0.2397715941
 H       -13.2310180882        8.9346483785       -0.8969326365
 H       -14.0175130231        7.5623425568       -1.7737274127
 H       -12.3500100309        6.0416699103       -1.2605309757
 H       -11.5556904791        7.1520174217       -0.0542143889
 H       -11.6950366405        3.9800710170       -2.8861596816
 H       -10.8955396436        3.2348324186       -1.6876566882
 H        -8.7560934060        3.6589917676       -3.5314234125
 H        -9.9589179257        3.6218313695       -4.6872302594
 H        -6.5966053568       -0.7079903777       -4.0138955685
 H        -7.6757706397       -0.2058859892       -2.7263408919
 H        -4.9545396490        1.0616481432       -3.0269556638
 H        -5.3855540297        0.1420338448       -1.6600305648
 H        -4.1729001164        4.0782492560        1.6935663812
 H        -3.9610145473        2.2921162910        1.4166171274
 H        -5.9222146014        3.6158741485        3.3755563990
 H        -4.2555323782        3.0242433728        3.7503278252
 H        -8.6888817851       -0.5506109434        3.6855415402
 H        -8.3914678616        0.4470377786        2.2198413427
 H       -10.8921469581        0.8760180135        3.8971278453
 H       -10.8231685951       -0.2549629026        2.4748263285
 H       -10.0131978778        4.6465968453        4.7812838064
 H       -10.5788180742        6.1056153131        3.8730368006
 H        -8.8548470545        5.5993630716        3.9700709669
 H       -11.7730984885        3.5004408866        0.5244640160
 H       -12.1992288836        4.8819954646        1.5258451006
 H       -13.1594142567        3.4289984487        1.5724227610
 H       -12.4225922487        4.2209150045        4.2932638526
 H       -11.5585711325        2.8249048526        4.7536161858
 H       -12.9850239030        2.7410825879        3.7128154379
 H        -5.3915776407       -0.7099588539        5.0552753917
 H        -6.3284567242       -1.1548769943        3.6855108549
 H        -7.0807044953       -0.9554880330        5.2908139672
 H        -6.7630627784        1.3622735692        6.4948901060
 H        -6.4610978534        2.8191770368        5.4989808333
 H        -5.1229270414        1.7673620972        5.9214689536
 H        -3.4972600810        1.9429894984       -0.8492635278
 H        -3.2870429049        3.7136808482       -0.6630224908
 H        -3.5312934195        3.0204553220       -2.1745660924
 H        -5.4157943707        5.3404521308       -1.2522756183
 H        -6.8921334682        4.4363659352       -1.8130619060
 H        -5.4525030061        4.4645172346       -2.7682857515
 H        -8.5707493790       -0.9713676931       -5.3365894912
 H       -10.2449887033       -0.6765676688       -5.1235355217
 H        -9.1473895033       -0.8505837933       -3.7263395939
 H        -8.4077693851        1.0524555460       -6.9495860827
 H        -8.6244738145        2.6877431539       -6.3030997757
 H       -10.0006597706        1.5974107720       -6.6377874561
 H       -11.1795662203        5.5415316967       -4.7778971842
 H       -11.4726720848        7.2499253131       -4.7011564186
 H       -12.4671545010        6.0746761378       -3.8723722445
 H        -8.9300773694        6.3537259093       -4.3941272199
 H        -8.2938109868        6.8905224741       -2.8210205632
 H        -9.0731653391        8.0321523985       -3.8850894979
 H       -15.5781651642        9.6534891894       -0.2442406030
 H       -15.6504964658        9.6772217734        1.6150808639
 H       -17.0200565552        9.3549891727        0.6700817870
 H       -15.8543103607        6.0025062199        2.1939137555
 H       -17.1057613378        7.2079000265        2.1707952746
 H       -15.5119252083        7.6794860478        2.8790739717
 Na       -8.9850959922        3.4669554800       -0.3706875614
