117

 C       -17.9332952613        6.4883327604        0.0142079392
 C       -16.5016152790        6.8901767197       -0.4222966119
 O       -16.0692818083        6.6663404081       -1.5221162582
 C       -15.6688021364        7.6620834438        0.6985691129
 C       -14.1371055907        7.4101565845        0.3730484983
 O       -13.4326169494        6.8240822001        1.1905634622
 C       -13.5175069435        7.8581888491       -0.9212057133
 C       -12.0829704775        7.2424152288       -0.9801605879
 C       -11.0772743638        7.7334507104       -2.1088226061
 O       -10.8166927065        8.8847616788       -2.3428485474
 C       -10.4564408054        6.5409648893       -2.9966088987
 C       -10.0890606749        5.2933203648       -2.1935206544
 O        -9.3431109005        5.3494648654       -1.2658600462
 C       -10.7385769041        3.9160294918       -2.5925256499
 C        -9.9181192741        3.1937118312       -3.6918058667
 C        -9.7658807291        1.6744546820       -3.6342682494
 O       -10.2119336060        0.9931424418       -2.7232410360
 C        -8.8810248209        0.9575711204       -4.7214135982
 C        -7.4323840647        1.1783355313       -4.2916236295
 O        -6.7473791369        2.1405449472       -4.7641414534
 C        -6.8314531854        0.2256291248       -3.2722541360
 C        -5.6752485355        0.8541138879       -2.4425935753
 C        -6.2994721382        2.0297063402       -1.5985088861
 O        -7.5121086059        2.1878996486       -1.5913308820
 C        -5.3911283368        3.0372176389       -0.9837794542
 C        -5.8991152577        3.0930545246        0.5376172122
 O        -7.0321521997        3.2180513823        0.9423327051
 C        -4.7661167968        3.1039509115        1.5625901524
 C        -5.2433878103        2.8971293193        2.9701461594
 C        -5.6004059361        1.4422370691        3.1705942706
 O        -5.1686606714        0.5742887755        2.4094833727
 C        -6.5267153007        1.0578449763        4.4316778970
 C        -8.0404801239        1.4416113700        4.0448829089
 O        -8.4233131352        2.5478218239        4.2648678331
 C        -8.8762523512        0.3926325880        3.2232542582
 C       -10.3770572705        0.7557000435        2.9822572433
 C       -10.6302744686        1.9601040562        2.0768261193
 O       -10.4041596487        1.7720871317        0.9004743153
 C       -11.1782872467        3.3243826946        2.5425655355
 C        -9.9526553906        4.3778143461        2.7790855559
 O        -9.1550082170        4.6019826097        1.9048223546
 C        -9.9615397843        5.3016846854        4.0351369034
 C       -12.1230084392        3.9778022593        1.3996806235
 C       -12.0458451422        3.1245322441        3.8822487893
 C        -6.2767107689       -0.4661636443        4.6689728373
 C        -6.1239147102        1.8275484718        5.6929897432
 C        -3.8957238973        2.7359109225       -1.1468473997
 C        -5.6853054022        4.4214281709       -1.7924124894
 C        -9.2639184517       -0.4913600326       -4.8025956796
 C        -9.0748006054        1.5916110295       -6.1051222839
 C       -11.4449889903        6.2766235567       -4.1225211654
 C        -9.1374065022        7.0054846141       -3.5868339057
 C       -15.9864474403        9.1243221210        0.6952553683
 C       -16.0105190788        7.0814964929        2.0972911415
 H       -17.8652854596        5.9369187106        0.9198357116
 H       -18.4818933572        5.9522658931       -0.7656210498
 H       -18.4553310062        7.4723765266        0.3176482066
 H       -13.4492610819        8.9370908821       -0.8994462942
 H       -14.2570941214        7.4826162520       -1.6521601230
 H       -12.1501899798        6.2067801807       -1.1060172213
 H       -11.5901792506        7.4358003159        0.0154562936
 H       -11.8185549579        4.0316829697       -2.9262075509
 H       -10.9217821733        3.3463236166       -1.6902056215
 H        -8.8943940174        3.6248224232       -3.6641227256
 H       -10.2107040498        3.4403657158       -4.7027929235
 H        -6.5630727100       -0.6431770601       -3.8653600297
 H        -7.5921601031       -0.0951327475       -2.5484247354
 H        -4.9306191886        1.1633648633       -3.0931262463
 H        -5.1797031778        0.1052011333       -1.8647947192
 H        -4.3097906513        4.1145196570        1.4841907788
 H        -3.9944824211        2.3204007260        1.3760421448
 H        -6.1396393813        3.5654349656        3.0605250667
 H        -4.5312435414        3.2309780365        3.6813830474
 H        -8.8582112922       -0.5205368715        3.6762539832
 H        -8.3877706279        0.3272842360        2.2689219869
 H       -10.9180519307        0.8229634791        3.9265952632
 H       -10.7611073557       -0.1009875359        2.3861728630
 H        -9.8236437389        4.6175738078        4.8821668326
 H       -10.9066113154        5.8858538854        4.0888192015
 H        -9.1091271364        5.9616343321        3.9792563227
 H       -11.8226695562        3.7185346295        0.4485136488
 H       -12.2642758034        5.0875106126        1.3770251796
 H       -13.1339412198        3.5301645485        1.5336341566
 H       -12.5421391688        4.0411496054        4.2081306398
 H       -11.6013419616        2.7604068737        4.8476291318
 H       -12.9064268583        2.5696078315        3.5725803208
 H        -5.3196150668       -0.6870990387        5.0683038688
 H        -6.3024272690       -1.0035838261        3.7515692708
 H        -6.9586008914       -0.8684913524        5.3728658356
 H        -6.4976830781        1.4168592666        6.5547543191
 H        -6.4145781275        2.8786212275        5.5639255923
 H        -5.0122690389        1.8110226375        5.7802217540
 H        -3.5959920425        1.7476788017       -0.9452931904
 H        -3.1629886158        3.4864742842       -0.6711648284
 H        -3.6607260881        2.8690146116       -2.2211916994
 H        -5.2606375473        5.3094801366       -1.3777064567
 H        -6.7716161548        4.5120492112       -2.0409461331
 H        -5.1941438632        4.3650793206       -2.7768891288
 H        -8.7356687320       -0.9934221518       -5.5941353150
 H       -10.3407077174       -0.6964590681       -4.9995205421
 H        -9.0467174737       -0.9461976084       -3.8591846077
 H        -8.6985457085        0.8715733881       -6.8431724452
 H        -8.5487745728        2.5077470203       -6.2197942456
 H       -10.1086237621        1.6800682523       -6.3854757398
 H       -11.1767923176        5.3967675065       -4.7749101705
 H       -11.4190504053        7.0761319437       -4.8084710815
 H       -12.4960392796        6.0392229978       -3.8659382184
 H        -8.9869335657        6.7036016117       -4.5688125508
 H        -8.2834568679        6.7700334541       -2.9357452416
 H        -9.1284276954        8.1190090906       -3.5941572911
 H       -15.5512181537        9.7263954252       -0.0645013960
 H       -15.7745940732        9.4334047264        1.7307150722
 H       -17.0588350470        9.1904104611        0.6602820131
 H       -16.0786179190        6.0156221019        2.0603506022
 H       -16.9931838816        7.5069479237        2.3804994319
 H       -15.1994523204        7.3673538649        2.7745418846
 Na       -8.9670840772        3.4571812746       -0.2187643721
