117

 C       -18.0931637614        6.8267987105       -0.0586282822
 C       -16.5583019082        6.9607855784       -0.3571741149
 O       -16.1554813767        6.6392125390       -1.4891390972
 C       -15.5615397922        7.5945648088        0.6767394942
 C       -14.0927426825        7.3213150642        0.3298063872
 O       -13.4112173220        6.7183987265        1.1203558401
 C       -13.3497178328        7.8353330364       -0.9503334083
 C       -11.8795520009        7.3215727603       -0.9631770181
 C       -11.0336429446        7.7280842210       -2.1814116178
 O       -10.7798657958        8.8294735040       -2.5356381115
 C       -10.4635995116        6.5253822209       -3.1522594836
 C       -10.1014450204        5.1897263195       -2.4248525614
 O        -9.1934563455        5.2672776602       -1.5597164341
 C       -10.7412336310        3.9004086455       -2.6841742175
 C       -10.0395565787        3.0924709611       -3.7809171933
 C        -9.8803869054        1.5817587385       -3.5656970689
 O       -10.2523331244        1.0992459528       -2.5250456650
 C        -9.0587980219        0.8277504272       -4.6057036078
 C        -7.5964764955        1.0630954865       -4.2368193873
 O        -7.0342469427        2.0671468291       -4.5104575990
 C        -6.8044413626        0.0453771861       -3.4228696861
 C        -5.8162400582        0.8939268052       -2.5892763847
 C        -6.4214463989        1.9640225674       -1.7336390212
 O        -7.6306148297        2.1371149541       -1.6063232804
 C        -5.3081998568        3.0688063283       -0.9646473049
 C        -5.6999135837        3.1146162644        0.5903403248
 O        -6.8789354975        3.0781620545        0.8550037391
 C        -4.6237355305        3.2338560399        1.7296809017
 C        -5.3058946222        3.0010143861        3.0829740566
 C        -5.7283108787        1.5302299281        3.2004079880
 O        -5.4731403763        0.7232865801        2.3089228533
 C        -6.5702358743        1.1230567044        4.4457035758
 C        -7.9770406729        1.4201959342        4.0225520651
 O        -8.4560240393        2.5602991391        4.2490010117
 C        -8.7943632762        0.3908243010        3.2341236015
 C       -10.2360031107        0.9384956987        3.1147257474
 C       -10.4043073574        2.0208017569        2.0674328408
 O       -10.2151683806        1.7854884692        0.8748461669
 C       -11.0989193068        3.3545515593        2.5454828884
 C        -9.9653037662        4.4613811797        2.8570472213
 O        -9.1311773458        4.7371061204        2.0278533543
 C       -10.1089755054        5.2119617313        4.1393689084
 C       -11.9018239264        4.0127092200        1.3877956278
 C       -11.9961686319        3.1364272139        3.7696393484
 C        -6.4182287047       -0.3766939517        4.7553529432
 C        -6.1076404022        1.9963386795        5.6844910923
 C        -3.8541066906        2.5256937164       -1.0741014834
 C        -5.5392822755        4.5189835925       -1.5086202020
 C        -9.3641890378       -0.6292725586       -4.8166905508
 C        -9.3469530074        1.5506956505       -5.9737235157
 C       -11.4464603283        6.2939130871       -4.3124993576
 C        -9.1970738406        7.0973137446       -3.7608901758
 C       -15.9177512170        9.1352575796        0.5792350131
 C       -15.8743503351        7.0160896319        2.0352369291
 H       -18.3435587581        5.7333527638       -0.0773011520
 H       -18.6531926156        7.3484420374       -0.8480162551
 H       -18.3679196946        7.2403469165        0.8586371943
 H       -13.3787493881        8.9420580552       -0.8949559611
 H       -13.9580549713        7.4298890892       -1.7583528383
 H       -11.8654878872        6.1844645062       -0.9624326138
 H       -11.3957828142        7.6723743478       -0.1013674090
 H       -11.7973755155        3.9900853985       -2.8250845233
 H       -10.7680674580        3.3377686593       -1.6921230061
 H        -9.0213832663        3.4829758449       -3.9558619919
 H       -10.5020277680        3.2338630816       -4.7913778662
 H        -6.2134497750       -0.6575109517       -4.0487947880
 H        -7.4733654408       -0.5136824005       -2.7838960884
 H        -5.1086834129        1.3703013737       -3.3576600921
 H        -5.1054219540        0.2131590268       -2.0512302769
 H        -4.2845075719        4.2422626144        1.5948617520
 H        -3.7993535206        2.5657737354        1.6970130479
 H        -6.1509600575        3.6234669286        3.1206250215
 H        -4.6307738348        3.2526499437        3.9376245381
 H        -8.8588890001       -0.6399835242        3.7752329428
 H        -8.2334124177        0.2798608026        2.2715873756
 H       -10.4657912881        1.3603180201        4.0823073524
 H       -10.9492383528        0.1606713404        2.8902510766
 H        -9.6352625310        4.6981295620        4.9819159054
 H       -11.1879728618        5.3674767525        4.2741172386
 H        -9.6454735053        6.2038214556        3.9591915167
 H       -11.1987135944        4.4135764319        0.5655910297
 H       -12.3909117443        4.9087462185        1.6808773748
 H       -12.7042162892        3.3949625077        1.0021050461
 H       -12.7871988750        3.8937476780        3.9413315821
 H       -11.3860052981        3.2142191238        4.6418776481
 H       -12.5986914725        2.2040287927        3.7975290742
 H        -5.3586965996       -0.5575003350        5.0047431109
 H        -6.5624366031       -1.0729215491        3.9043052360
 H        -6.8827705771       -0.7098971588        5.6787815850
 H        -6.5629333793        1.5649858500        6.6415953920
 H        -6.3366106671        3.0292714183        5.6058197291
 H        -5.0608920284        1.8685923869        5.7891353319
 H        -3.7688253588        1.5581708126       -0.4785187551
 H        -3.1538827660        3.1612608445       -0.6504712665
 H        -3.4727041860        2.3033658357       -2.0639463302
 H        -4.6597670266        5.1509798655       -1.2521103956
 H        -6.4754521431        4.8991583314       -1.2193797921
 H        -5.5390091863        4.6223509375       -2.5783360947
 H        -8.7215892515       -1.0789529596       -5.6080659760
 H       -10.4050030165       -0.7546078904       -5.1317567909
 H        -9.3704826575       -1.1791118754       -3.8640504327
 H        -8.9702170987        1.0408095248       -6.8400711797
 H        -8.8110632525        2.5281797815       -5.9558480800
 H       -10.4278731194        1.5868212905       -6.1873178463
 H       -11.0641635155        5.7010092337       -5.1166570523
 H       -11.6846815470        7.2667700995       -4.8381276114
 H       -12.3625056672        5.7992597581       -4.0496622722
 H        -8.9355115194        6.5545376547       -4.7194052448
 H        -8.3718147545        7.1418670265       -3.0576734789
 H        -9.3341895794        8.1155318894       -4.0860536803
 H       -15.8101598806        9.4013536613       -0.4945080399
 H       -15.2523075663        9.7361956142        1.2011922148
 H       -16.9820907206        9.2453532154        0.8775057210
 H       -15.8968978710        5.9043950483        1.9690820607
 H       -16.7808141155        7.5068080232        2.3251141648
 H       -15.0483346261        7.1865500613        2.7202599344
 Na       -8.9409000667        3.3189893108        0.0929406838
