117

 C       -13.0091125847        5.9248954020       -7.3890776168
 C       -11.9820207106        6.7266219799       -6.7223590519
 O       -11.0289839719        6.1099392483       -6.1882920663
 C       -11.7873568054        8.3407145845       -6.9807251504
 C       -11.2742903244        9.0533206428       -5.6740878198
 O       -12.0122480190        9.6823249796       -4.9794056956
 C        -9.7938718324        8.9634096542       -5.3463570581
 C        -9.5344392543        8.9370652328       -3.8234974838
 C        -8.0849494141        8.3410673853       -3.5363459608
 O        -7.1382783880        8.4629931398       -4.2945855638
 C        -7.8756444574        7.5944295611       -2.1430738380
 C        -9.0043480564        6.5079298096       -1.8614849031
 O        -9.9978126306        6.8443201426       -1.2931114766
 C        -8.9098007233        5.1187831028       -2.5189422121
 C       -10.3073862378        4.4859461580       -2.8509360973
 C       -10.7126446877        3.3226282691       -2.0268086298
 O        -9.8288317625        2.5112079314       -1.6275763998
 C       -12.2662990284        2.8517134707       -1.7790151737
 C       -12.4745614972        2.8027908120       -0.1802090521
 O       -12.0255573331        1.9013707120        0.5575855299
 C       -13.2655484463        3.9576534144        0.5074971240
 C       -12.8401272491        4.2581161670        1.9969233408
 C       -11.3503310605        4.2019943364        2.4218170158
 O       -10.4896791929        4.2698391802        1.5776910751
 C       -10.7448227834        4.5156773159        3.8950049654
 C        -9.9851228857        3.1508876503        4.3728619372
 O        -9.5953747090        2.4227737216        3.5038560631
 C       -10.0371769223        2.6920275432        5.8410972872
 C        -9.2123904333        1.4616274677        6.1917075588
 C        -9.8468034648        0.0774771193        5.7357318265
 O       -10.9814701669        0.0333193383        5.3221493579
 C        -8.8283093973       -1.1206800454        5.8008934863
 C        -8.2400421881       -1.2440240986        4.2460102170
 O        -7.5605008608       -0.4162019618        3.7564513139
 C        -8.9265694133       -2.2128622191        3.3122626216
 C        -8.3672137215       -2.0672454063        1.8651509411
 C        -8.1908339367       -0.5936423417        1.4373353997
 O        -9.1463213034        0.2018253793        1.4136370977
 C        -6.7678364526       -0.0932165005        1.0373222557
 C        -6.4794141200        1.3635704008        1.4948436030
 O        -7.3821774303        2.1943194078        1.4772059266
 C        -5.0945189950        1.7900053276        1.9274479167
 C        -5.6551590984       -1.0348006648        1.5898163452
 C        -6.6475403390       -0.1768102084       -0.5315307151
 C        -7.7279542062       -1.0253897655        6.8931994009
 C        -9.6475988763       -2.3496090406        6.1505883096
 C        -9.6906064076        5.7300322243        3.6617395947
 C       -11.7716644054        5.0218042235        4.9526917452
 C       -13.1983003012        3.8002079899       -2.4469292296
 C       -12.3007087862        1.3936669946       -2.4135868047
 C        -6.4834818246        6.9672622052       -2.2208322679
 C        -7.9462284116        8.6363691484       -0.9100849514
 C       -10.7802133027        8.4583625993       -8.1414220846
 C       -13.1241624593        9.0333829933       -7.3634905761
 H       -14.0743433132        6.0626631507       -7.1360415624
 H       -12.8967794177        4.8820893539       -7.1814239969
 H       -13.0059194534        6.1184019559       -8.5583184164
 H        -9.2020076163        9.8188818414       -5.8165174448
 H        -9.5112906749        8.0010023754       -5.6517673270
 H       -10.2762143268        8.3036055545       -3.2998662635
 H        -9.6269458380        9.9005872139       -3.3127387040
 H        -8.3342664304        4.4047979356       -1.9310412994
 H        -8.3037308544        5.3097290908       -3.3542160651
 H       -10.2318448907        4.1988587075       -3.9207394158
 H       -11.1557031355        5.2387099937       -2.6930840968
 H       -14.3495765140        3.7998412415        0.6214378768
 H       -13.1197139678        4.8462338883       -0.1580928214
 H       -13.4853163942        3.5097213100        2.5677782314
 H       -13.1120879576        5.2298678656        2.2899651115
 H       -11.0987797541        2.6721524015        6.0983037678
 H        -9.5171607181        3.3855769232        6.5057706348
 H        -9.1796587537        1.3218775777        7.2948598219
 H        -8.1169780389        1.6213996136        6.0186344702
 H        -9.9761369715       -2.0212709792        3.4719888029
 H        -8.9117790267       -3.2622844218        3.6642207979
 H        -9.0443068664       -2.5858592808        1.2080081277
 H        -7.4517530960       -2.6717477301        1.7964058830
 H        -4.8866253211        1.3142406831        2.8785248902
 H        -4.9694555680        2.9159809174        1.9459779731
 H        -4.3908368570        1.2984919499        1.2964924631
 H        -5.4775649478       -1.9870968933        1.0083539324
 H        -5.8550881367       -1.3989822922        2.5095063528
 H        -4.7278109371       -0.4984469454        1.6266441598
 H        -6.9260232174       -1.1575283455       -0.8813072535
 H        -5.5933078663        0.1214848165       -0.8268343382
 H        -7.3176958913        0.6103809573       -1.0127125352
 H        -8.2728708553       -0.8844278223        7.8820894404
 H        -6.9462014307       -0.2572267153        6.7556529091
 H        -7.2441676850       -1.9920978462        7.0725725620
 H       -10.0800919936       -2.1130501746        7.0929382283
 H        -9.1800119781       -3.3022762833        6.1467486162
 H       -10.4658528169       -2.2588673591        5.4614938042
 H       -10.2437411481        6.4475856141        3.1181082592
 H        -8.7765703168        5.5371751250        3.1407350998
 H        -9.3851777918        6.1246947719        4.6372329636
 H       -12.7875817545        5.1860712448        4.5248426470
 H       -11.5364239765        6.0567890554        5.2333260597
 H       -11.9656286830        4.2694901539        5.6904515192
 H       -14.1778438531        3.5148247050       -2.0493011560
 H       -13.2265296600        3.8055503267       -3.5285792153
 H       -13.0609259961        4.7926082420       -2.1049888352
 H       -13.3263943531        1.2508807995       -2.7731875210
 H       -12.1444952287        0.6189173089       -1.6874576165
 H       -11.6992094146        1.5121123722       -3.3112247519
 H        -5.7339983401        7.7797591736       -2.3071891179
 H        -6.4103817611        6.2826802696       -3.0503320375
 H        -6.2929779320        6.3923898632       -1.3027260170
 H        -7.1890574967        9.3955274851       -1.1048588837
 H        -7.7135043180        8.1406958407        0.0248368731
 H        -8.9434876555        9.1193126976       -0.9778772805
 H        -9.8802962383        7.9441011639       -7.8760457596
 H       -10.5967006178        9.4568399994       -8.3568310260
 H       -11.3099853776        7.8848924674       -8.9394377065
 H       -13.7880552662        9.3071409486       -6.5077414924
 H       -13.7109775098        8.4741073811       -8.0814237667
 H       -12.9855270355        9.9292006756       -7.9686818705
 Na       -9.7387422659        2.2526526553        0.8883276239
