117

 C       -17.7208145510        7.8753336154       -0.7620971728
 C       -16.2960839660        7.2815539712       -0.5816015225
 O       -15.9575513575        6.3312374596       -1.3082440121
 C       -15.3509875819        7.8935130139        0.4777856682
 C       -13.8748270478        7.2559601250        0.2882303788
 O       -13.4217069439        6.5361066602        1.1487299255
 C       -13.1984951977        7.5769627920       -1.1066362375
 C       -11.7845666442        6.9669410888       -1.2110947153
 C       -11.1694453966        7.4569774546       -2.5411920847
 O       -11.1469828945        8.6191503293       -2.8384112248
 C       -10.5089483767        6.3691670914       -3.5691084394
 C       -10.0958362361        5.1590470608       -2.6536130312
 O        -9.1580590710        5.2490235489       -1.8301015358
 C       -10.9155038636        3.8402400957       -2.7230261657
 C       -10.5035855475        2.9189233605       -3.8564998801
 C       -10.5299310947        1.3976148444       -3.5205766533
 O       -11.2667271818        0.8962909823       -2.6591591816
 C        -9.5572478806        0.4834993598       -4.3739204274
 C        -8.0757381083        0.9684562482       -4.1190268385
 O        -7.5519029942        1.9175513391       -4.6570776732
 C        -7.2237577667        0.2287260682       -3.0318314149
 C        -5.9685331852        1.0275520834       -2.5486352201
 C        -6.3058505694        2.1663390939       -1.5883997655
 O        -7.4710253246        2.4716051027       -1.3640982430
 C        -5.1044028058        3.0046703534       -0.9357918349
 C        -5.3869595515        3.1806449244        0.6178083578
 O        -6.3815026870        3.7856734720        0.9689174127
 C        -4.3776352493        2.7313674866        1.7196254002
 C        -4.9127606530        2.6110806797        3.1170760157
 C        -5.7104737768        1.3261024834        3.4275374261
 O        -5.7114009215        0.3839173407        2.6307406109
 C        -6.4572949869        1.2840932086        4.7298253108
 C        -7.9794336422        1.5487510036        4.4995582800
 O        -8.5574184795        2.6702139325        4.5606795211
 C        -8.7384885915        0.4395370773        3.8561677850
 C       -10.1438645619        0.8856653759        3.3086036480
 C       -10.0409789079        2.0281982823        2.3105506845
 O        -9.3206187405        1.8776923136        1.3400111967
 C       -10.9550366505        3.2933248464        2.4551189443
 C       -10.1525153594        4.5961463361        2.7330132442
 O        -9.5918234790        5.1095384774        1.7757543936
 C       -10.1742812416        5.2456931941        4.0982402965
 C       -11.5427329149        3.4727242593        0.9335753977
 C       -12.1435113386        3.1534267617        3.4516928486
 C        -6.3054285308       -0.1543607333        5.2989619928
 C        -5.9715505252        2.3078536979        5.7194299280
 C        -3.6828940590        2.2543647167       -1.1358210102
 C        -5.1886095512        4.4915491649       -1.4578961723
 C        -9.9245828167       -0.9500790557       -4.0945175678
 C        -9.6612225605        0.7966111461       -5.8986780705
 C       -11.6300275141        6.1357795253       -4.6857517560
 C        -9.3460489446        7.0804806602       -4.2181342827
 C       -15.2423135542        9.4796433704        0.3656073530
 C       -15.8288634955        7.4523341718        1.8308273479
 H       -17.7471079563        8.9870146267       -0.5852670020
 H       -18.4308243215        7.3027054753       -0.1654593126
 H       -17.9926991988        7.7667769922       -1.7733528064
 H       -13.2104114655        8.6579372207       -1.1954913832
 H       -13.7929241492        7.1736487820       -1.9479019337
 H       -11.7353829655        5.8626587061       -1.2965963944
 H       -11.1457946243        7.2133220644       -0.3440811871
 H       -11.8775153504        4.2009395476       -2.9824131847
 H       -10.9002977187        3.2712509962       -1.8006483657
 H        -9.4831386754        3.0477647689       -4.1707874541
 H       -11.1715857202        3.0863613043       -4.6831453351
 H        -6.9400960539       -0.7423976995       -3.4194805902
 H        -7.9173472580        0.1337575535       -2.1513568665
 H        -5.3873288418        1.3987261967       -3.4110662387
 H        -5.3035933662        0.3696516752       -2.0732403667
 H        -3.4970072739        3.4560430919        1.7497333764
 H        -3.8424087063        1.7696878127        1.5542969947
 H        -5.5505846372        3.4526139170        3.4046872562
 H        -3.9987665295        2.6582768149        3.7858784002
 H        -8.8410184367       -0.4710670956        4.4417042795
 H        -8.0760458922        0.1002653202        3.1375228885
 H       -10.8118362166        1.1795867085        4.1724717999
 H       -10.6551513603        0.0369656255        2.8069836051
 H       -10.4049047125        4.5545070700        4.8799631330
 H       -10.9348526014        5.9836829593        4.0459695229
 H        -9.2465341625        5.7908913567        4.1684026205
 H       -10.7667461132        3.1889850863        0.1417799481
 H       -11.8175900446        4.4765201589        0.7406110341
 H       -12.3943416559        2.8539510237        0.7447103596
 H       -12.7878448138        4.0097985313        3.3775615851
 H       -11.9452709332        3.0139764604        4.4618350967
 H       -12.7252650450        2.2490948817        3.2205455577
 H        -5.2308534140       -0.3014439511        5.4848547898
 H        -6.6780257478       -0.9765456201        4.6624342616
 H        -6.8878172462       -0.3476078845        6.2161743832
 H        -6.5685320773        2.2504572116        6.7115627073
 H        -6.1712842074        3.2855269818        5.2854466307
 H        -4.9251344111        2.1973670438        5.8890931381
 H        -3.7577967710        1.1184870116       -1.0464258877
 H        -3.0023956638        2.5480187082       -0.4175069097
 H        -3.2564205169        2.4497420546       -2.1002316279
 H        -4.2480826262        5.0410308624       -1.2743950976
 H        -5.8789647948        5.0998015168       -0.9180372261
 H        -5.4473411069        4.5325871571       -2.5100795343
 H        -9.2954728336       -1.7214331366       -4.5484091964
 H       -10.9524771624       -1.0281016336       -4.4550432992
 H        -9.8899232518       -1.0607776667       -3.0042160893
 H        -9.0215622141        0.0473780649       -6.3644242501
 H        -9.2183307364        1.7926389751       -6.1454256064
 H       -10.6696272117        0.7932374386       -6.3308836065
 H       -11.2348460433        5.5847004235       -5.4779110782
 H       -11.9527409154        7.1566649362       -5.0472340190
 H       -12.5211415702        5.6692986714       -4.2916766866
 H        -9.2782359256        7.0242235309       -5.3534538694
 H        -8.3783931763        6.7064975108       -3.9448268464
 H        -9.3579966147        8.1366608369       -4.0295912365
 H       -15.0739019661        9.8493783191       -0.6641903374
 H       -14.4305158004        9.7290289032        1.0057914928
 H       -16.1992189083        9.8442615136        0.7911074868
 H       -16.2850408540        6.4275810502        1.7911407586
 H       -16.6079521652        8.1686907169        2.0765666855
 H       -15.0478484278        7.6175505888        2.5637978151
 Na       -8.7008677418        3.9202880872        0.1021562069
