117

 C       -17.5028016596        8.3602006488       -1.1777672067
 C       -16.3481945236        7.5151958255       -0.6532495243
 O       -16.1433903498        6.4606094511       -1.1639739423
 C       -15.2971969984        8.0935575992        0.4665864808
 C       -13.9128875627        7.5119905511        0.2390588981
 O       -13.3709098615        6.7958029261        1.0508153316
 C       -13.1667341139        7.9444892079       -1.0335939088
 C       -12.0235514870        7.0352210140       -1.3141440667
 C       -11.1485066949        7.3591235973       -2.6090496854
 O       -11.0790113836        8.4857803494       -3.0103696072
 C       -10.5041367837        6.2444661187       -3.5614243506
 C       -10.1315400179        5.0186405991       -2.7267008457
 O        -9.1427685458        5.1220535031       -1.9623807299
 C       -10.9191671735        3.7128567535       -2.8137522116
 C       -10.3817299799        2.7922580187       -3.9133648013
 C       -10.5493342138        1.3064492992       -3.5919334790
 O       -11.4321535169        0.8989120526       -2.8671549727
 C        -9.6011567974        0.3255561283       -4.2602500383
 C        -8.1707253320        0.7703884252       -3.9321603284
 O        -7.5680532644        1.5845771821       -4.6300966908
 C        -7.4760806279        0.1887363371       -2.7257687741
 C        -6.1037988694        0.8715091480       -2.3236390888
 C        -6.3073249950        2.1515191101       -1.5561292476
 O        -7.4506636051        2.5304064465       -1.2925860764
 C        -5.1607560324        3.0073102480       -1.1018333068
 C        -5.4363411960        3.2133431328        0.4646551549
 O        -6.0874805681        4.1155633618        0.8776610616
 C        -4.8036988394        2.1265366194        1.4171576338
 C        -5.1796183598        2.4482936066        2.8584209364
 C        -5.7303321860        1.1746123749        3.6326214475
 O        -5.7194040580        0.0710369318        3.0726502303
 C        -6.3910325926        1.2591216993        5.0043268918
 C        -7.8532836833        1.6009071407        4.6161949436
 O        -8.2703495811        2.7588204319        4.7029281236
 C        -8.6372012391        0.5170728799        3.8639710134
 C        -9.9357169992        1.0644379031        3.2909707217
 C        -9.8816487381        2.2928701335        2.3185727542
 O        -8.8970416324        2.5621827894        1.6693843615
 C       -11.1201582375        3.2544690389        2.3311704177
 C       -10.3820173770        4.6286106376        2.5084020022
 O        -9.6593445732        4.9977808196        1.6137800760
 C       -10.3347919980        5.3825910166        3.8563227994
 C       -11.6898581702        3.1433559659        0.9512102870
 C       -12.1726861983        2.9586846352        3.3958494869
 C        -6.2811834308       -0.0499882214        5.7265766006
 C        -5.8761960943        2.4411690777        5.9030962303
 C        -3.7831771933        2.3832564030       -1.5229371571
 C        -5.3464684953        4.4052771392       -1.7854477634
 C        -9.8756347517       -1.1201187752       -3.6075187598
 C        -9.8868147098        0.3310514579       -5.7925461324
 C       -11.5790399607        5.8426597039       -4.5914088345
 C        -9.2198042017        6.8927649882       -4.2360103615
 C       -15.3631209670        9.6777070387        0.3504541124
 C       -15.7926129512        7.5907016877        1.9148262565
 H       -18.2576688531        8.4107925128       -0.3893629837
 H       -17.9688563804        7.9351783505       -2.0735456610
 H       -17.2054125476        9.3719531163       -1.3362166955
 H       -12.8496074373        8.9625448942       -0.9262303348
 H       -13.8270467561        7.9549179180       -1.9095985465
 H       -12.3321604761        5.9760245177       -1.6012544098
 H       -11.3054443320        6.8771276295       -0.4890648525
 H       -11.9011291603        4.0099635084       -2.9342139699
 H       -10.7649476945        3.2827003002       -1.8356349015
 H        -9.3087816400        2.9589236524       -3.9294808300
 H       -10.8297244293        3.0610838539       -4.8595893292
 H        -7.3371714768       -0.8842174301       -2.9497762899
 H        -8.2114431176        0.2646090180       -1.8679348993
 H        -5.4842272267        1.1805922445       -3.2414094736
 H        -5.5056198011        0.1389479168       -1.7860236940
 H        -3.7024649329        2.1307585330        1.2918183865
 H        -5.0290633389        1.1321682672        1.0419661907
 H        -5.8906896762        3.2884410472        2.8685186719
 H        -4.2531942758        2.7523505552        3.4544460806
 H        -8.6620255948       -0.5334914188        4.2481712951
 H        -8.0280692375        0.3268822677        3.0009756067
 H       -10.6560632015        1.3467156369        4.0910481654
 H       -10.4190188822        0.2468536076        2.7131267057
 H        -9.5229197880        4.9341735200        4.4489286417
 H       -11.3007805688        5.2514267735        4.3943136538
 H       -10.1233718030        6.4317174936        3.6252341620
 H       -10.9719855277        3.4901730973        0.2270749037
 H       -12.6223578308        3.7396841072        0.8639561241
 H       -11.8300060452        2.0991582417        0.5956708860
 H       -13.0657589055        3.5900628742        3.2573920184
 H       -11.8380545918        3.2154498525        4.3553060332
 H       -12.6193877887        1.9628218810        3.3602096316
 H        -5.2613106528       -0.1732402170        6.1209616985
 H        -6.4437211517       -0.9645727204        5.0839248570
 H        -6.9794465051       -0.1005457402        6.5709309426
 H        -6.4525726999        2.3012357678        6.8512207251
 H        -6.1047529737        3.3643321048        5.4270204488
 H        -4.8332277276        2.4012223148        6.1697135523
 H        -3.6201377585        1.4816937989       -0.9266177841
 H        -3.0172892404        3.0909622798       -1.5075210059
 H        -3.8333253847        2.0590924007       -2.5357113438
 H        -4.9253767830        5.2024352465       -1.1169880917
 H        -6.3493162428        4.7335712355       -1.9034403742
 H        -4.8140797644        4.4090406816       -2.7284535430
 H        -9.2377786557       -1.8640718414       -4.0558839618
 H       -10.9147394833       -1.3190500455       -4.0206810851
 H        -9.6931241476       -1.1714743944       -2.5775911595
 H        -9.3098352422       -0.4525676270       -6.2170771296
 H        -9.6731072703        1.3546236785       -6.1431349413
 H       -10.9314827628        0.1937399005       -6.1025626758
 H       -11.2120777637        5.1524917184       -5.3120242983
 H       -11.9070605552        6.7718237829       -5.1187770430
 H       -12.4093972400        5.4242349334       -4.0432367568
 H        -8.4769476715        6.1379962959       -4.5665057009
 H        -8.5779651516        7.5268460885       -3.6123525659
 H        -9.4508877599        7.5389667071       -5.0758336654
 H       -14.9693514358        9.9441379409       -0.6429806650
 H       -14.7737303925       10.0573305821        1.1892020669
 H       -16.3828517157       10.0561372092        0.4592081910
 H       -15.4016152065        6.5625406387        2.1215083018
 H       -16.8488708880        7.4577565519        1.9366415867
 H       -15.4302344962        8.3005944104        2.6392705796
 Na       -8.2421186922        4.1581799809        0.1364575152
