117

 C       -17.4577693459        8.4169779592       -1.2643072317
 C       -16.3426226803        7.6020967239       -0.6386652642
 O       -16.0504397820        6.5286821707       -1.0500508168
 C       -15.3766642654        8.1826947663        0.4652173053
 C       -13.8881507710        7.6160698780        0.1881547440
 O       -13.4038140724        6.8246097484        0.9931304637
 C       -13.0811443568        8.0034339060       -1.0970123351
 C       -12.0301091772        6.9053406062       -1.4264843817
 C       -11.2162792360        7.3365392598       -2.6944982339
 O       -11.0050873688        8.4777950142       -2.9529781102
 C       -10.5311062352        6.1719453527       -3.6278475726
 C       -10.1321645256        5.0591103633       -2.6808933109
 O        -9.2308516905        5.2320558304       -1.8295694955
 C       -10.8552721535        3.6616857611       -2.7070759504
 C       -10.4075304113        2.8370230628       -3.8895185275
 C       -10.6348904619        1.2744049817       -3.5720919215
 O       -11.4518605045        0.9374800049       -2.7906845745
 C        -9.6031632411        0.2652468049       -4.2572451316
 C        -8.1082584495        0.6437664231       -3.9122719518
 O        -7.5966205857        1.4266145244       -4.7019092085
 C        -7.3776736719       -0.0150391362       -2.6889327406
 C        -6.1584642552        0.7550978055       -2.3248972134
 C        -6.4538459118        2.0623306431       -1.5937997947
 O        -7.5967577731        2.4059621601       -1.3146616242
 C        -5.1664523005        2.9573343835       -1.1056069874
 C        -5.3697128375        3.1828636869        0.3966466407
 O        -5.9912159447        4.1123491149        0.8200319478
 C        -4.9251013205        2.1284347351        1.3755201594
 C        -5.2408630296        2.3646148864        2.8277767122
 C        -5.6337936301        1.1129799164        3.6146558660
 O        -5.5678461480        0.0208890228        3.1721373516
 C        -6.3786096173        1.3708089564        4.9802551685
 C        -7.8677689440        1.7360751382        4.5343506490
 O        -8.4098581515        2.7567003000        4.7462039780
 C        -8.5963918373        0.5814359481        3.7803228553
 C        -9.9282706854        1.0256725923        3.3076099641
 C        -9.8340893845        2.2669739629        2.4978230188
 O        -8.8480890847        2.4392564316        1.7698858899
 C       -11.0560019638        3.2880788237        2.3573976905
 C       -10.4164027379        4.7187698283        2.5192201537
 O        -9.8208085730        5.1790441395        1.5746859494
 C       -10.4322382806        5.4703224955        3.8175003960
 C       -11.6279532598        3.1033020205        0.8933660980
 C       -12.1983155912        2.9885084745        3.3849555424
 C        -6.2985296441        0.0021289573        5.6647453070
 C        -5.7146245480        2.4897237406        5.8895452262
 C        -3.8288598660        2.3773682577       -1.5667552105
 C        -5.3486265700        4.4185213894       -1.6691426639
 C        -9.9129597007       -1.0621485170       -3.5327895646
 C        -9.6818168937        0.2101034940       -5.7723205429
 C       -11.6212402151        5.8507292893       -4.7331197873
 C        -9.2822077015        6.8193024446       -4.2175597475
 C       -15.3644292833        9.7019124176        0.4006996350
 C       -15.8481528262        7.6322268821        1.8812440199
 H       -18.2996303476        8.2373793464       -0.6773634863
 H       -17.7116821068        8.1438791274       -2.2954836035
 H       -17.2616738004        9.5184349610       -1.1677961387
 H       -12.5441665527        8.9947851733       -1.0468451513
 H       -13.8026463674        8.1308192610       -1.8961632564
 H       -12.3247270461        5.8330603616       -1.5267632364
 H       -11.2433970135        6.9038238790       -0.7228647300
 H       -11.8708842650        3.9512672101       -2.7769979348
 H       -10.6887953903        3.1727806018       -1.7285465060
 H        -9.3810213146        3.0044427519       -4.0085185149
 H       -10.9538792230        3.1848380567       -4.7561076813
 H        -7.0877971529       -1.0590250783       -3.0470369208
 H        -8.0493179823       -0.1174726757       -1.8555002959
 H        -5.6559634540        1.0429079521       -3.2278242899
 H        -5.4948110183        0.0924408767       -1.7868147480
 H        -3.8181408223        1.9731285042        1.2541440236
 H        -5.2926670644        1.1708903177        0.8901646620
 H        -6.1797387168        2.9253526760        2.8259655701
 H        -4.4813277571        2.9964473266        3.3649499298
 H        -8.7841216098       -0.1487212157        4.5048263352
 H        -8.0491164179       -0.0194470304        3.0712705840
 H       -10.5891687264        1.1780348465        4.1478512420
 H       -10.4084561592        0.2378652479        2.6178118102
 H        -9.7000203612        5.1161640579        4.5069393574
 H       -11.4629889223        5.3330959148        4.2044578084
 H       -10.2508793538        6.4842571934        3.5626644347
 H       -10.9943936882        3.3481975857        0.1175750823
 H       -12.5392852050        3.7207444623        0.8884524144
 H       -11.8912875482        2.0606394757        0.6628995381
 H       -12.9976324068        3.7078967650        3.4617803751
 H       -11.7542054550        2.9859992410        4.3742268983
 H       -12.7065054048        2.1296188638        3.1617245238
 H        -5.2539913808       -0.3891060980        5.7747221168
 H        -6.7889618336       -0.7899925956        5.0241304203
 H        -6.7756794225       -0.0165670816        6.6656630759
 H        -6.1442522607        2.4677270318        6.8398171470
 H        -5.7431421621        3.4703218789        5.3865990044
 H        -4.6174156795        2.1970521016        6.0315513861
 H        -3.8130878041        1.3759652044       -1.4105802909
 H        -2.9711524067        2.9608767638       -1.1514812724
 H        -3.7556067023        2.5541828605       -2.6233877908
 H        -4.9885480697        5.1971100132       -0.9866037502
 H        -6.4125827202        4.6602941873       -1.7719397230
 H        -4.8599423773        4.5319658942       -2.6253570347
 H        -9.2311375786       -1.8583281958       -3.7702003757
 H       -10.9390493134       -1.3275992150       -3.8452513196
 H        -9.8070271145       -0.8557192266       -2.4750568888
 H        -9.2228229678       -0.7248183754       -6.0454519304
 H        -9.1999871798        1.1217107931       -6.1373244368
 H       -10.6774116723        0.2461709860       -6.2453305643
 H       -11.0750896394        5.3438148609       -5.5556083857
 H       -11.9357247793        6.7637454424       -5.1195525908
 H       -12.4067884705        5.2356168638       -4.3543746223
 H        -8.5093630376        6.2234085563       -4.5951497333
 H        -8.7254738132        7.4877492524       -3.5014653529
 H        -9.5854282979        7.5558450321       -4.9818976624
 H       -14.9188621446        9.9226334894       -0.5691174341
 H       -14.6878281603        9.9936406113        1.2716316278
 H       -16.3040820446       10.2050016339        0.5020724536
 H       -15.6984938557        6.5634936203        1.8093327165
 H       -16.9316717178        7.7012533793        2.0677389351
 H       -15.2125748890        8.0399418085        2.6867729397
 Na       -8.1686140617        4.2807808597        0.1531691291
