117

 C       -17.2589586241        8.5757801938       -1.4056646799
 C       -16.1959486610        7.7717282852       -0.7357975920
 O       -15.8712014087        6.7029481289       -1.1252588242
 C       -15.2987668804        8.3232712022        0.4903237127
 C       -13.9004048879        7.6970797378        0.2072936041
 O       -13.3284938046        6.9376296056        0.9757787152
 C       -13.1537048545        8.0687521864       -1.1722678051
 C       -12.4724259223        6.9416221368       -1.8267031444
 C       -11.3025009737        7.3724767538       -2.8014383150
 O       -10.9715064874        8.5120988391       -2.8893036287
 C       -10.5416942871        6.1875621068       -3.5781795388
 C       -10.0674491822        5.0397131598       -2.5582238626
 O        -9.4805793740        5.4871931065       -1.5510092450
 C       -10.4304974114        3.5822516254       -2.7302693415
 C       -10.1058583117        2.6925583513       -3.9214137870
 C       -10.4409050907        1.1468546852       -3.4982693903
 O       -11.3355836214        0.9415244472       -2.7704074892
 C        -9.6513650560       -0.0253459382       -4.1109072272
 C        -8.1528467075        0.3156675241       -3.8286501200
 O        -7.5855370003        1.2228546004       -4.4441687113
 C        -7.3881461397       -0.2388140412       -2.5922163250
 C        -6.1446983220        0.5798625534       -2.1685046126
 C        -6.4762549971        1.8953031702       -1.5508919258
 O        -7.6296952832        2.3082175400       -1.4020153693
 C        -5.3155015000        2.9601896754       -1.1655431499
 C        -5.4692434487        3.2771457106        0.3520615726
 O        -6.1344307815        4.1940612892        0.6647189569
 C        -5.0258911316        2.0288919211        1.2414331951
 C        -5.3919841181        2.2021506788        2.7313210039
 C        -5.5015114091        0.9208462608        3.6328582258
 O        -4.9838811092       -0.1129980331        3.4154481788
 C        -6.2205319608        1.2894331016        4.9541279377
 C        -7.7566288847        1.6231426807        4.5769912658
 O        -8.2637405472        2.6397866927        4.8718867735
 C        -8.6763047842        0.6149799291        3.9374971964
 C        -9.9293522007        1.2319656804        3.3856724611
 C        -9.7248729061        2.4676719444        2.4798475365
 O        -8.7521951048        2.6066643713        1.7559982814
 C       -10.9722536344        3.4017794548        2.3516681550
 C       -10.5495233428        4.9140591955        2.4179825557
 O        -9.9024466100        5.3790127342        1.5157061231
 C       -10.8403331546        5.7666455697        3.6805292721
 C       -11.4822975266        3.2030159630        0.8806968280
 C       -12.0777954330        3.1270424400        3.3548537851
 C        -6.2050566341        0.0943622677        5.9908588654
 C        -5.7187917586        2.6267820583        5.6110828883
 C        -3.9051121995        2.4432254676       -1.5606201215
 C        -5.6957194819        4.2060734461       -2.0487714374
 C       -10.0628869884       -1.2781794881       -3.4292062433
 C        -9.9144300515        0.0285407454       -5.6781416320
 C       -11.6160356440        5.6585249261       -4.5957329835
 C        -9.2516500859        6.7855363216       -4.2339878410
 C       -15.0279366978        9.8260715930        0.3579557790
 C       -15.9264319530        7.7888915526        1.7970944111
 H       -18.1640575737        8.2327890441       -0.9762361718
 H       -17.3716789479        8.4797841742       -2.5022535811
 H       -17.1463632176        9.6450332405       -1.1497678408
 H       -12.4416064375        8.7762106146       -0.7863906255
 H       -13.8462651100        8.6496190813       -1.7733743465
 H       -13.2282096496        6.2218987178       -2.3103670175
 H       -11.9760347502        6.3747594801       -1.0166967423
 H       -11.4707134719        3.6655509216       -2.6030975613
 H       -10.0895917537        3.0590980262       -1.7993346489
 H        -9.0420721390        2.7767123016       -4.2457724381
 H       -10.7862667164        2.8240441959       -4.8019280861
 H        -7.1272171462       -1.2517153911       -2.9205752694
 H        -8.1391638259       -0.3813428698       -1.7995171239
 H        -5.5216953729        0.7354576560       -3.1377546113
 H        -5.5328007124        0.0303144799       -1.4301284771
 H        -3.9971519766        1.7318856536        1.0456804695
 H        -5.6365903600        1.2823944289        0.8248908249
 H        -6.3570607329        2.7041191418        2.7608909501
 H        -4.6488494557        2.8389583859        3.2994080356
 H        -9.0400579388       -0.0665706110        4.7859430812
 H        -8.2094287010       -0.1353748918        3.2744148402
 H       -10.4774347009        1.5845127261        4.2419836909
 H       -10.5542136969        0.5148912368        2.8432497661
 H       -10.7175892301        5.1463771986        4.5756147523
 H       -11.8972797532        6.1962887173        3.5714766900
 H       -10.0918631935        6.5570161876        3.7403461898
 H       -10.7557683162        3.1254907491        0.1408684637
 H       -12.2601707777        3.9912730271        0.6344970805
 H       -12.0508884930        2.2160142192        0.8574596626
 H       -13.0207528999        3.7134113240        3.0664638677
 H       -11.7959553232        3.4421420713        4.3788536696
 H       -12.4066981582        2.0878105159        3.3365845188
 H        -5.2095625649       -0.0598386920        6.3304387924
 H        -6.5187969361       -0.8571349744        5.5535014841
 H        -6.7297910931        0.3486772309        6.8486376753
 H        -6.2867288723        2.7574493202        6.5118042882
 H        -6.0358905203        3.3955543776        4.9524428953
 H        -4.6437580754        2.6705512663        5.8311134088
 H        -3.5965053900        1.6182886014       -0.9580384654
 H        -3.1865224794        3.3059003492       -1.5172752545
 H        -3.9459640957        2.1191467695       -2.6196903025
 H        -4.7849647349        4.8444615929       -2.2305378884
 H        -6.4706081816        4.7767371393       -1.5613752662
 H        -6.0585471822        3.9498786655       -3.0340847313
 H        -9.3943092059       -2.0795831966       -3.7146192735
 H       -11.1944080375       -1.4380130972       -3.6396624376
 H       -10.0275857791       -1.0594264604       -2.3889520289
 H        -9.3242842408       -0.7189449248       -6.1553505788
 H        -9.6295070016        1.0228669483       -6.0730880893
 H       -10.9593536511       -0.1938716475       -5.9519938024
 H       -11.2121314367        4.7872786504       -5.1568979473
 H       -11.9129567965        6.4997763606       -5.2463545387
 H       -12.4243152687        5.3075427250       -3.9517509161
 H        -9.0429649049        6.3183056215       -5.1746117542
 H        -8.3392415914        6.5953757562       -3.6284665211
 H        -9.1758948736        7.8482416648       -4.4018505726
 H       -14.7525866003       10.0677698142       -0.6553998266
 H       -14.2700383102       10.1804441040        1.0874025110
 H       -15.9432537522       10.3093160966        0.5912675792
 H       -16.3742114019        6.7882799503        1.5747158494
 H       -16.7400643011        8.4448122199        2.0528945143
 H       -15.2742692515        7.6248115205        2.6576175661
 Na       -8.5069961654        4.1530566084        0.1013136056
