117

 C       -17.2199513494        8.7171923041       -1.3928811517
 C       -16.1543769072        7.8083345870       -0.7681261943
 O       -15.8590941609        6.7517414943       -1.3100958071
 C       -15.2851159916        8.3155347047        0.4174886447
 C       -13.8597027950        7.6361742104        0.1644353091
 O       -13.2620610936        6.9798290517        1.0036000607
 C       -13.0812064123        8.0690140085       -1.1168881986
 C       -12.5131221640        6.9035734437       -1.9060193747
 C       -11.2898630857        7.3255893923       -2.7167103610
 O       -10.9731363897        8.4760532999       -2.9247573024
 C       -10.5763400264        6.1664307631       -3.5307356386
 C       -10.0657505095        5.0437657989       -2.5664273244
 O        -9.4544664241        5.4048830550       -1.5390581266
 C       -10.3964008365        3.5382916033       -2.7145547339
 C        -9.9761314557        2.6459153712       -3.8220250526
 C       -10.4424206680        1.2096869808       -3.4746991120
 O       -11.3272654035        1.0079105662       -2.6930776570
 C        -9.5937397212       -0.0575820442       -4.0628453215
 C        -8.1210405986        0.3640304596       -3.7919252683
 O        -7.5592478514        1.1990438513       -4.4608213905
 C        -7.4875751178       -0.2326168719       -2.5055300385
 C        -6.2396519512        0.4813638448       -2.1407372053
 C        -6.5195505270        1.8504791567       -1.5586809216
 O        -7.6714947542        2.2483682274       -1.3578033836
 C        -5.3419086153        2.9356803543       -1.3010579400
 C        -5.5983540042        3.2080892286        0.2938367875
 O        -6.2716475576        4.1500954736        0.6417973673
 C        -5.1697564798        2.0860614159        1.2596057473
 C        -5.4237708847        2.2356969855        2.7282900124
 C        -5.3249917320        0.9732321222        3.6748844675
 O        -4.9457891660       -0.1618082271        3.5012321898
 C        -6.2481070912        1.3584671891        5.0101534375
 C        -7.7208201100        1.5881509847        4.6783312714
 O        -8.1838339047        2.6888388106        4.8981526978
 C        -8.6320035231        0.5704050831        3.8889132141
 C        -9.8816360510        1.2860676406        3.4662515098
 C        -9.7580819846        2.4981301325        2.5166026120
 O        -8.7485425833        2.6623242739        1.8248614388
 C       -11.0388362994        3.4914510768        2.3305173581
 C       -10.4814895267        4.9749083457        2.4040314333
 O        -9.7319014529        5.3929723720        1.5475258290
 C       -10.8678936492        5.8904238055        3.5333576502
 C       -11.5865052384        3.2250568374        0.8713474255
 C       -12.2242856351        3.1044807777        3.2956729284
 C        -6.0679412899        0.1353531360        5.9399577813
 C        -5.7253806475        2.6140716940        5.6725087269
 C        -3.9151319672        2.4456353227       -1.6553479474
 C        -5.7323886958        4.1514191606       -2.1791160489
 C       -10.0446152051       -1.4279010770       -3.3987275230
 C        -9.9148456586        0.0362957368       -5.5931868346
 C       -11.5458306435        5.6258355221       -4.5741839604
 C        -9.4039025057        6.7757139566       -4.2731369663
 C       -15.0994536143        9.8550148588        0.3374408166
 C       -15.8009199027        7.9064898697        1.7872000899
 H       -18.1581697571        8.4369597907       -0.9930543263
 H       -17.3141556240        8.6075181007       -2.4633589820
 H       -17.0548290653        9.8013092952       -1.2089043202
 H       -12.3962708943        8.8369569004       -0.7082600308
 H       -13.8195636992        8.5873635872       -1.6551202417
 H       -13.3701683211        6.5741430462       -2.5907379789
 H       -12.2689743675        6.0278106604       -1.2828066943
 H       -11.4372515534        3.4495276860       -2.5248330174
 H        -9.9827046171        3.1330319292       -1.8100874041
 H        -8.9317181001        2.5476682611       -3.9210421768
 H       -10.4071075583        2.9104715679       -4.8106586355
 H        -7.3247276385       -1.3477456859       -2.7514655866
 H        -8.2572089348       -0.2370454205       -1.7385382614
 H        -5.6460119264        0.5722712468       -3.0536785070
 H        -5.6630857892       -0.0924193315       -1.3593973486
 H        -4.0724348838        2.0739628871        1.1365146738
 H        -5.6114773559        1.1433102741        0.8695391039
 H        -6.4967825298        2.5085240372        2.9068998405
 H        -4.7726654799        3.0315469911        3.1903682084
 H        -8.9362747224       -0.2415800654        4.4932186569
 H        -8.1540353646        0.0515141725        3.0282690341
 H       -10.3820688866        1.6725179673        4.3467521681
 H       -10.5882363936        0.5399851628        2.9531505026
 H       -10.9702019283        5.3110528016        4.4721466587
 H       -11.8641375407        6.2550660612        3.1689127378
 H       -10.1618214038        6.7205029821        3.7294444535
 H       -10.8861066133        3.2261044546        0.0034583033
 H       -12.3951383274        3.9583273648        0.6853894835
 H       -12.1214964923        2.2430289074        0.8765930744
 H       -13.1086254490        3.7403199326        3.1826424844
 H       -11.9271848326        3.1169300961        4.3909792736
 H       -12.5106157443        2.0970397107        3.0501780667
 H        -5.0709032927        0.0891238473        6.4113894593
 H        -6.2037699329       -0.7490517523        5.3336726161
 H        -6.7557628098        0.1656541677        6.7925638523
 H        -6.1511751887        2.7090253306        6.6101189108
 H        -6.0556740589        3.5047509174        5.1222684737
 H        -4.6200320961        2.5189149172        5.7745453939
 H        -3.5224629947        1.8488568473       -0.8942171345
 H        -3.2485330669        3.3296949698       -1.7955683166
 H        -3.9566359109        1.8955146105       -2.5694724040
 H        -4.8857371906        4.7796099666       -2.3537733524
 H        -6.5318588699        4.6834804735       -1.6154573919
 H        -6.1621335378        3.9336755221       -3.1576365950
 H        -9.5399340978       -2.2958905624       -3.8471528575
 H       -11.0852593651       -1.4190231797       -3.4505581265
 H        -9.8941433953       -1.3106461864       -2.2990642706
 H        -9.2853420469       -0.7275730521       -6.0937276881
 H        -9.6551988371        0.9959573981       -6.0452843378
 H       -10.9478108053       -0.2525058334       -5.8088000877
 H       -11.0276994551        4.8110245949       -5.1568022257
 H       -11.8488989678        6.4335755686       -5.1496605838
 H       -12.3528017869        5.1795984891       -4.0057328774
 H        -9.2225144826        6.4176780299       -5.2575235551
 H        -8.4562066571        6.6944837651       -3.6894974042
 H        -9.4481141558        7.8921962256       -4.3859410775
 H       -14.6803558653       10.2295092633       -0.5910988627
 H       -14.4592146057       10.1681147562        1.2169738110
 H       -16.0617726715       10.2824857897        0.5343157139
 H       -16.0020067905        6.8683811746        1.8679389073
 H       -16.7070993647        8.5251817258        1.9351740511
 H       -15.1164071726        8.1026216836        2.6324504233
 Na       -8.5835087205        4.0375602273        0.0455073590
