117

 C        -5.1439536887       -4.5939471754        4.3072674361
 C        -5.9337468269       -5.1964074176        3.1353747429
 O        -5.2138948787       -5.7403350987        2.3129595262
 C        -7.5853271847       -5.3850486823        3.1799364944
 C        -8.0988170350       -4.1702770136        4.0072605098
 O        -7.7084901740       -4.1164524847        5.1675153916
 C        -8.6431685224       -2.8680365797        3.3343337271
 C        -8.3191945833       -1.6931154671        4.3337558024
 C        -9.2109850096       -0.5843938911        4.0120938457
 O        -9.6800783615       -0.4527344194        2.9219408247
 C        -9.6819707393        0.4154844675        5.1185888337
 C        -9.4350938822        1.8316383592        4.4759296042
 O        -8.7566534099        2.6392742759        5.0755790156
 C       -10.1024534357        2.2534579730        3.1748234889
 C        -9.1212698975        2.3644557608        1.9658781336
 C        -9.7862103800        2.8981333667        0.6534660202
 O        -9.3696638866        3.9301028437        0.2129532838
 C       -10.8031514315        2.0161256484       -0.1456933921
 C       -12.3259486831        2.5391117317        0.2676433063
 O       -12.6517218888        2.7144650987        1.3900943119
 C       -13.3920861160        2.5332417527       -0.9039686397
 C       -14.0275364554        3.8607150459       -1.3148565219
 C       -13.0954091044        5.0727834675       -1.2196277550
 O       -11.9792593134        5.0067547204       -0.7266859214
 C       -13.4985056839        6.4394729511       -1.9078446136
 C       -12.5429490431        6.4727170036       -3.2157475674
 O       -11.4321849193        5.9900846548       -3.1660827995
 C       -13.0054712609        7.1700595889       -4.5048479279
 C       -11.8817882644        7.8895988357       -5.1860593362
 C       -11.6570793461        9.3219405070       -4.8570197136
 O       -12.5137509101       10.0344777512       -4.3285828860
 C       -10.2369465229        9.8641023067       -5.2519996327
 C        -9.2265807085        9.9076087056       -3.9549400117
 O        -8.1032950912        9.5442737959       -4.0693558369
 C        -9.7952387544       10.2762807406       -2.5722554252
 C        -8.7201383323        9.8843246953       -1.4376160621
 C        -8.7117266017        8.3909603024       -1.0536473687
 O        -9.7448161691        7.7761149136       -0.8616626552
 C        -7.2756607812        7.7018872473       -0.7562870009
 C        -6.9507061045        6.7650877955       -1.9749734321
 O        -7.4328724325        5.6952980971       -2.1334644853
 C        -5.8941105354        7.1322931228       -3.1437422221
 C        -6.1883267030        8.7639490858       -0.4790235960
 C        -7.3805482961        6.9437563267        0.5596006313
 C        -9.5347283620        9.0253350672       -6.3411277316
 C       -10.3484485518       11.3654105999       -5.7388080932
 C       -14.9865730374        6.4880310538       -2.2907021428
 C       -13.2557358711        7.7113434365       -1.1133381925
 C       -10.6110279873        2.2240702795       -1.6948473714
 C       -10.7477274784        0.4904966703        0.1469860261
 C       -11.2056459532        0.1923443635        5.2377281328
 C        -8.9271931258        0.2120283833        6.4625538846
 C        -7.8615337212       -5.4084002564        1.7158061365
 C        -7.9333044295       -6.7956716592        3.7475896668
 H        -5.4248109458       -3.5681576211        4.4990983850
 H        -4.0448260294       -4.5874812891        4.1503344798
 H        -5.4648961254       -5.1405653685        5.1339947092
 H        -9.7830018317       -2.8512254442        3.0434121216
 H        -8.0262742844       -2.6997960707        2.4438832655
 H        -7.2800207672       -1.2580359946        4.0429059021
 H        -8.4102383923       -2.0755731426        5.3236844741
 H       -10.4990538968        3.2943104553        3.3721710100
 H       -10.9748211392        1.6000702563        2.9075600543
 H        -8.7024740704        1.3582029459        1.7771205707
 H        -8.3494163015        3.0129248868        2.1881713995
 H       -14.1829543819        1.8595638802       -0.6925795891
 H       -12.9988034117        1.9790267975       -1.7007360134
 H       -14.8478367315        3.9675571680       -0.7178028217
 H       -14.4844161207        3.8541180879       -2.3280724480
 H       -13.9704623067        7.7033049774       -4.3996624598
 H       -13.1957770676        6.2716543269       -5.1232536704
 H       -12.0912507863        7.7047717726       -6.2996798325
 H       -10.9749210029        7.3755120887       -4.8529853139
 H       -10.7307680853        9.6341149373       -2.4126449150
 H       -10.1089769857       11.2971060503       -2.6658296203
 H        -8.9783152719       10.4809746496       -0.5038468638
 H        -7.6842313170       10.1446813059       -1.7486032952
 H        -6.3467917547        8.0797146165       -3.6368525715
 H        -5.8306300929        6.2967400664       -3.7939247269
 H        -4.9895122852        7.4006655253       -2.6894555601
 H        -6.3243682025        9.2803805174        0.4868827476
 H        -6.0645903272        9.5176348394       -1.2769732414
 H        -5.2690227324        8.2115705675       -0.4779577650
 H        -7.4475095553        7.7266221871        1.3037451155
 H        -6.2934085668        6.6300839367        0.7995412941
 H        -8.0064167825        6.1626079421        0.6476028156
 H        -8.5388552044        9.3682486170       -6.4767670036
 H       -10.1408175503        9.0200966706       -7.2616787827
 H        -9.5402661190        8.0007460460       -6.0030679473
 H        -9.4920780261       11.7778695411       -6.1978124866
 H       -10.8164471320       12.1547237148       -5.0287992373
 H       -11.1064476465       11.4360074649       -6.5717455829
 H       -15.5812786681        6.0668668159       -1.4731204358
 H       -15.1597303243        5.9875261887       -3.2110549452
 H       -15.2623473805        7.5590847078       -2.5854274055
 H       -13.9335957018        7.6347696134       -0.3323999764
 H       -13.5559265859        8.5407421992       -1.7753686488
 H       -12.3344992463        7.9061515772       -0.6459322222
 H       -11.0833076574        1.4467865796       -2.2358168834
 H        -9.5324939295        2.1740484265       -1.7758689019
 H       -10.9008149712        3.1464409673       -2.0597506575
 H       -11.0006649095        0.3594473754        1.1861675817
 H        -9.8224545857       -0.0038445478       -0.0375515726
 H       -11.5035168235       -0.0946569849       -0.4669756059
 H       -11.5033667065       -0.3485833545        6.1418875877
 H       -11.5735430371       -0.3181390166        4.3832749127
 H       -11.7548073239        1.1880867044        5.2266547361
 H        -9.5860926825       -0.3210457817        7.1207691157
 H        -8.6563835372        1.1215062319        6.9366640814
 H        -8.1450023156       -0.4451911820        6.2214057845
 H        -7.8387283956       -4.4483892553        1.2366998604
 H        -8.8327765315       -5.8424671496        1.3659798789
 H        -7.2366715262       -6.1508288764        1.2294176698
 H        -7.5594182434       -7.0132646400        4.6888760782
 H        -7.5620586954       -7.5118582445        3.0357858419
 H        -9.0021225245       -6.8710301645        3.8623322583
 Na       -9.8886041961        5.6856387159       -1.2091959040
