117

 C       -17.2144798593        8.8235547334       -1.2885987268
 C       -16.0462889318        7.9574503549       -0.9042062349
 O       -15.8114267427        6.9519490247       -1.4981671928
 C       -15.1605431334        8.4692602143        0.3303590700
 C       -13.7488068540        7.7685750438        0.1369477103
 O       -13.2788603588        7.0400921621        0.9904274079
 C       -12.8990939356        8.1260862756       -1.0748975413
 C       -12.5689601474        6.8383248344       -1.8612001706
 C       -11.4193845984        7.1694928969       -2.8735428602
 O       -10.9532546572        8.2637936051       -2.8361846867
 C       -10.6487713560        6.0861532695       -3.6419474832
 C       -10.0555040547        5.0806456390       -2.5971417182
 O        -9.2279959867        5.4250061609       -1.7871630239
 C       -10.7049122236        3.6622240740       -2.5189561158
 C       -10.0103779765        2.7545421940       -3.5989950327
 C       -10.4159747395        1.1845062765       -3.2994028445
 O       -11.3164849026        0.9839554408       -2.5447091549
 C        -9.6056958747       -0.0248255889       -4.0846057115
 C        -8.1132626620        0.2153207591       -3.7039636264
 O        -7.3356785529        0.8450465930       -4.4345677722
 C        -7.5069746515       -0.4055072359       -2.4124529977
 C        -6.2483472413        0.3869896092       -2.0208180552
 C        -6.6681344064        1.7833151883       -1.5264362259
 O        -7.8370591140        1.9751689590       -1.3114137441
 C        -5.5243025565        2.8562914611       -1.3360696454
 C        -5.6356800414        3.0495662628        0.1993325268
 O        -6.3925907499        3.8759569824        0.6192786043
 C        -5.0674428469        2.0650843812        1.2266513302
 C        -5.5764416315        2.5211371158        2.6373955407
 C        -5.4143678290        1.2931089990        3.6181819613
 O        -4.8479674299        0.3330563054        3.2498656070
 C        -6.2168311106        1.3616079225        5.0694555579
 C        -7.7327057922        1.7669182601        4.7639637940
 O        -8.1565842574        2.8482939173        5.0682193834
 C        -8.4546840154        0.7873643737        3.8154249677
 C        -9.9337781798        1.2575273433        3.6030492520
 C        -9.8779945914        2.4489811129        2.5888766164
 O        -8.8715320113        2.5720797295        1.9632688389
 C       -11.0943392379        3.5248116404        2.3619931736
 C       -10.4197308126        4.8891686185        2.3964730374
 O        -9.4499537004        5.1628303942        1.6967855901
 C       -11.1626793738        5.9569721333        3.2222533507
 C       -11.6139637707        3.3478770559        0.8597156853
 C       -12.2637479122        3.4045538229        3.3871111405
 C        -6.0184548524        0.1003938482        5.8591697189
 C        -5.4557577762        2.5029875103        5.9039508444
 C        -4.1030569699        2.2714925760       -1.7435714778
 C        -5.8359979179        4.2078893503       -2.1207407994
 C       -10.1545063533       -1.3132748069       -3.4197687741
 C        -9.7932845144       -0.0029393215       -5.6125176680
 C       -11.6166967845        5.4199339501       -4.6920191599
 C        -9.3789756538        6.6577459648       -4.3182240971
 C       -15.0314910369        9.9897018581        0.3717299467
 C       -15.7635646857        7.8657879686        1.6135039560
 H       -18.0449516146        8.8609764650       -0.5577605169
 H       -17.5925392942        8.4192181192       -2.2422671388
 H       -16.8509473656        9.8083092353       -1.5174126491
 H       -12.0308407785        8.4888643204       -0.5469908013
 H       -13.4208937251        9.0017144301       -1.5831035111
 H       -13.4379753367        6.5283806827       -2.3484907436
 H       -12.2655558764        6.0463206669       -1.1884324428
 H       -11.8378603681        3.6954353957       -2.5628390692
 H       -10.5689743356        3.3132148071       -1.4660631204
 H        -8.9108534408        2.6945051281       -3.4115883278
 H       -10.1224018737        3.0746097954       -4.6053954009
 H        -7.2884233201       -1.3934198101       -2.6628036130
 H        -8.2505327494       -0.4935980801       -1.6082032162
 H        -5.6781783411        0.5243832028       -2.9510695120
 H        -5.7196234861       -0.1916740658       -1.3331217753
 H        -3.9502139480        1.9417659853        1.2034973935
 H        -5.6447613447        1.1441742201        1.0082104198
 H        -6.6449855290        2.7059155226        2.7408489818
 H        -5.0191104725        3.3767263394        2.9947716097
 H        -8.4026084564       -0.2619220392        4.2278897820
 H        -7.9163277119        0.7902703176        2.8924601312
 H       -10.2776341650        1.6950584400        4.5737037408
 H       -10.5900657219        0.4781898292        3.3078343684
 H       -11.3549374820        5.5999211108        4.2001004189
 H       -12.0202695961        6.3101067994        2.6650999509
 H       -10.4776887466        6.7490683902        3.3699831805
 H       -10.8739175017        3.7913145126        0.3121922874
 H       -12.5448840116        3.8588487258        0.6327856986
 H       -11.7490862161        2.3140034434        0.5655350348
 H       -12.9505591129        4.2238722708        3.1771096214
 H       -11.9369634200        3.4530490487        4.3767132748
 H       -12.7348814660        2.4185547967        3.3024645959
 H        -5.0256556176        0.0988211433        6.3295944937
 H        -6.1637234607       -0.8553497792        5.2644511667
 H        -6.6899579615        0.1338617460        6.7314790166
 H        -5.9427472624        2.6169422437        6.9270557653
 H        -5.5646603035        3.4809643005        5.4570051987
 H        -4.4317898427        2.1786524453        6.0205951396
 H        -3.8467623508        1.2973251215       -1.2870278489
 H        -3.3952298372        2.9279570251       -1.2584237764
 H        -4.0231371916        2.2493006440       -2.8340423878
 H        -5.1350732797        4.9995941760       -1.7672446472
 H        -6.8591415407        4.4598265809       -2.1420961903
 H        -5.5927900407        4.0555600902       -3.1629785984
 H        -9.5735257911       -2.0566120845       -3.9023584120
 H       -11.2816054516       -1.4286609318       -3.6282960196
 H       -10.1177786607       -1.3335166559       -2.3828206143
 H        -9.3440116496       -0.7755865543       -6.2015936411
 H        -9.3493387040        0.9440568615       -5.9633707393
 H       -10.8722735082        0.0079004454       -5.7866820879
 H       -11.0275466817        4.8634433131       -5.3459639339
 H       -12.1305619423        6.3010844563       -5.1392901305
 H       -12.3212934968        4.8108727298       -4.1666562545
 H        -8.8600741902        5.9292625797       -4.9821807192
 H        -8.7231975195        7.1281739510       -3.6033392437
 H        -9.5662015059        7.4455211608       -5.0192358927
 H       -14.7883651776       10.4071776412       -0.6299732826
 H       -14.2247720642       10.3126851443        1.0052453841
 H       -15.9839586206       10.4001332132        0.7783350148
 H       -15.3558510249        6.8519843774        1.8488841300
 H       -16.8142107506        8.0312516155        1.6705931042
 H       -15.3831973721        8.3835962684        2.5002338370
 Na       -8.5370782660        3.8960630888       -0.0583792256
