117

 C       -17.2869791875        8.8912737208       -1.2678558100
 C       -15.9716665432        8.2848796553       -1.0483989426
 O       -15.4931701379        7.5475011749       -1.8588072543
 C       -15.1145536818        8.5123671823        0.2550512964
 C       -13.7580828779        7.6980799959       -0.0329927525
 O       -13.3512856622        6.9430567699        0.8769777813
 C       -12.7585779351        8.1495542518       -1.1193293526
 C       -12.2418569092        6.9142633173       -1.8431123999
 C       -11.1380542278        7.2245883276       -2.9118411320
 O       -10.7841594669        8.3641070105       -3.1187282410
 C       -10.6638920133        5.9996044896       -3.7609827023
 C       -10.1969682704        4.9555646223       -2.7976046240
 O        -9.2340165064        5.1997319100       -2.0804739057
 C       -10.8543287710        3.5752748153       -2.8014379657
 C       -10.0308667628        2.4289647354       -3.5006011985
 C       -10.4259243697        1.0009503642       -3.1029779873
 O       -11.1280351346        0.7294635441       -2.2268107045
 C        -9.6832368447       -0.1252133687       -4.0163440123
 C        -8.2176462488       -0.1036689753       -3.6810722139
 O        -7.3900586092        0.4204089101       -4.4224887035
 C        -7.6317360274       -0.6367843255       -2.3214446262
 C        -6.4096681954        0.0952052018       -1.7844858011
 C        -6.7270592235        1.5418979280       -1.3941069974
 O        -7.8899035549        1.9278162644       -1.3260834457
 C        -5.5989273587        2.5985394046       -1.1979687159
 C        -5.7573160227        3.2683392489        0.2663584497
 O        -6.5201876199        4.1671670838        0.5136686184
 C        -4.7900984091        2.7061987278        1.4166581758
 C        -5.3492385133        2.8062157957        2.8233254575
 C        -5.3614423958        1.5058898954        3.5840193197
 O        -4.7081991713        0.5729911124        3.2347585937
 C        -6.0688895548        1.4685465515        5.0760234821
 C        -7.5475880789        1.9692944111        4.9088103144
 O        -7.9519338675        2.9926515991        5.3226066197
 C        -8.5636936045        0.9570677063        4.1425123153
 C        -9.9156274660        1.7471773864        3.9480476896
 C        -9.9819605206        2.4285335323        2.5834477321
 O        -9.2383924061        2.1686883316        1.6379566874
 C       -11.0902419404        3.5793341859        2.4503817715
 C       -10.3881411161        4.9177135904        2.3682944432
 O        -9.3996627279        5.1794378518        1.6758601994
 C       -11.1319443723        6.0363352226        3.1248485821
 C       -11.9500215831        3.3669987389        1.1634190450
 C       -12.0484075549        3.6661600878        3.6549954098
 C        -6.0054223643        0.0034539544        5.7057167364
 C        -5.2603597617        2.3470342353        6.0646606801
 C        -4.1554180222        2.0958240435       -1.5333667419
 C        -5.9279777593        3.6004394356       -2.3610257711
 C       -10.2672517193       -1.5111942921       -3.8095885466
 C       -10.0241106246        0.2690075907       -5.5600474388
 C       -11.8766002691        5.5769224478       -4.6469576584
 C        -9.4824865490        6.3802917032       -4.5904253356
 C       -14.8037072047       10.0117274672        0.4170579909
 C       -15.8628180417        7.9938889161        1.5600501501
 H       -17.4026978679        9.7817534192       -0.7352643887
 H       -18.1335716064        8.2370874028       -1.0494225412
 H       -17.3425473370        9.0744485991       -2.3442423768
 H       -11.8949485164        8.4941833576       -0.5518309225
 H       -13.1395287609        9.0461742947       -1.7289040991
 H       -13.0450325331        6.5250169019       -2.4156618350
 H       -11.8184347411        6.1207932745       -1.2244833051
 H       -11.8085448157        3.6445595315       -3.3143546873
 H       -11.2141506030        3.3251908548       -1.7818772382
 H        -8.9715150333        2.4463058771       -3.2401310956
 H        -9.9373450400        2.5146668001       -4.5266374670
 H        -7.3190849689       -1.6525130503       -2.5085633073
 H        -8.4293778239       -0.7517791748       -1.5424828644
 H        -5.6533675105        0.0481648422       -2.5880816024
 H        -6.0909972003       -0.4333315988       -0.9401782621
 H        -3.8920169928        3.4004928291        1.2518729387
 H        -4.6373910480        1.6012653383        1.1981618014
 H        -6.3647496995        3.2462715661        2.8709773189
 H        -4.7107416906        3.5090178522        3.3900769757
 H        -8.8041109978        0.3299914994        5.0021581316
 H        -8.2270504781        0.4425410856        3.3136244595
 H        -9.8826017374        2.5779108361        4.7305677083
 H       -10.8578374369        1.1809921427        4.1055281956
 H       -11.1555264908        5.7912406891        4.1871462689
 H       -12.1666232097        6.1786095163        2.6823584337
 H       -10.5945047331        6.9660291403        2.9948715927
 H       -11.2944703221        3.1297716491        0.3922005459
 H       -12.5153448692        4.2760246327        0.8275887842
 H       -12.6884610662        2.5508481380        1.3879561974
 H       -12.8976216474        4.3517815780        3.4773627258
 H       -11.5031954031        3.8747512592        4.5378131445
 H       -12.3851885394        2.6510422441        3.7903806533
 H        -4.9388485579       -0.2262857051        5.8352174060
 H        -6.5189090748       -0.8157157014        5.1021250261
 H        -6.5482856214        0.0033934318        6.6440738774
 H        -5.6319620003        2.2778187613        7.0871563370
 H        -5.2797868470        3.3900119985        5.7525587580
 H        -4.1999281064        1.9910651263        5.9728100284
 H        -3.7024695224        1.5471197027       -0.7698144939
 H        -3.5232616546        2.9855638093       -1.7015960851
 H        -4.1617568505        1.5566510822       -2.4602279588
 H        -5.1959640982        4.4492602607       -2.4531814975
 H        -6.9377273839        3.9640667945       -2.3103183397
 H        -5.8865208545        2.9861152815       -3.2487225604
 H        -9.8113098342       -2.1195825251       -4.5862431294
 H       -11.3981454425       -1.6221707516       -3.9429388171
 H        -9.9833822588       -1.8592738148       -2.8563467113
 H        -9.9686308520       -0.5269844121       -6.2602567984
 H        -9.3418450918        1.0193361370       -6.0081277555
 H       -11.0709040837        0.6425220641       -5.5199738359
 H       -11.4812435495        4.7882499962       -5.2405434740
 H       -12.0909217075        6.4550113568       -5.2579084764
 H       -12.7039371428        5.3326427689       -4.0256512234
 H        -8.9918827939        5.5253854870       -5.0783772699
 H        -8.7061678479        6.9353727403       -3.9849393561
 H        -9.7565488383        6.9903939695       -5.4547306255
 H       -14.0547567538       10.2693786136       -0.3469629831
 H       -14.2931688391       10.2596057525        1.3520757638
 H       -15.6247907346       10.7106622284        0.2352132297
 H       -16.3110515380        6.9952531277        1.3229939689
 H       -16.6253080140        8.6342793294        1.9702740788
 H       -15.2316855042        7.7777476543        2.4192163554
 Na       -8.6784082550        3.8954807941       -0.0483546638
