117

 C       -17.3598439681        8.9207810181       -1.2604804669
 C       -15.9687509296        8.3638656333       -1.0886974234
 O       -15.3904502921        7.7454406673       -1.9734762762
 C       -15.0407881082        8.5404681108        0.1993796664
 C       -13.6458963430        7.8066775950        0.0884883938
 O       -13.4180655962        6.7927198292        0.7552411394
 C       -12.7691121250        8.1517989587       -1.0774538493
 C       -12.1694648545        6.9428786592       -1.7410501312
 C       -11.1818819586        7.2899186939       -2.9498199371
 O       -10.7357332131        8.3895458254       -3.1480130166
 C       -10.7200174598        6.0248554872       -3.8278757199
 C       -10.2532999916        4.8518851356       -2.8434163012
 O        -9.3666232930        5.1158895653       -2.0101952437
 C       -10.8798204448        3.4232880424       -2.6896635103
 C       -10.0337524652        2.4505277116       -3.4948832396
 C       -10.3655967369        0.9205130952       -3.1283014203
 O       -11.0047688722        0.5401914206       -2.1395770436
 C        -9.7759398558       -0.1502183342       -4.0456707552
 C        -8.2180132224       -0.0221169157       -3.7105346236
 O        -7.3699327421        0.4131069016       -4.4396771123
 C        -7.8213313385       -0.6327561653       -2.2910033076
 C        -6.5791270138        0.0755869255       -1.7952562916
 C        -6.7278932814        1.4944640081       -1.2541254338
 O        -7.8648743492        2.0103675000       -1.0648718440
 C        -5.5151694773        2.5555071310       -1.1862280868
 C        -5.7427351894        3.2506694885        0.2716446106
 O        -6.5672496172        4.1242433686        0.4018708702
 C        -4.8567328549        2.8454069220        1.4679587737
 C        -5.3709852563        2.9468729094        2.9629478985
 C        -5.2190263794        1.5432063832        3.6941181771
 O        -4.7583849472        0.5363748940        3.1307826957
 C        -5.9202952374        1.5054614223        5.0508070745
 C        -7.4305439804        1.8877400649        4.8759121584
 O        -7.7889349013        2.9852795318        5.3053629664
 C        -8.4866162988        1.0141507596        4.1568930080
 C        -9.8332256892        1.7754188837        4.0382764830
 C       -10.0950751358        2.4867657087        2.6751107482
 O        -9.3572311311        2.2226352827        1.7101373064
 C       -11.2125584783        3.5684830109        2.5352088806
 C       -10.4114850440        5.0288815348        2.3152933146
 O        -9.5187456705        5.1334641007        1.5167409893
 C       -10.9126189020        6.2239129542        3.1184823883
 C       -11.9575021088        3.4435697007        1.1929639327
 C       -12.2297535747        3.6430450220        3.7110163481
 C        -6.0110414342        0.0599919140        5.6346614290
 C        -5.1975112432        2.3996562853        6.0724618305
 C        -4.1538894973        1.9609951097       -1.5102592506
 C        -5.8649806312        3.5079566765       -2.3515454621
 C       -10.3674695156       -1.5449207267       -3.7401020966
 C        -9.9029772604        0.1480442513       -5.5858116459
 C       -11.9608083049        5.7000333410       -4.7518210129
 C        -9.4657812129        6.3877979120       -4.6941673365
 C       -14.6980677212       10.0454000315        0.3150978609
 C       -15.7956201397        7.9120634831        1.4106967513
 H       -17.4513795610        9.9205689547       -0.9057515958
 H       -18.0518962743        8.3135107999       -0.6902275035
 H       -17.7015167767        8.8220659104       -2.3278704749
 H       -11.8602024532        8.7010719809       -0.6723994401
 H       -13.2570499209        8.8542020862       -1.7373277730
 H       -12.9931601999        6.3924093934       -2.2032974185
 H       -11.5971088022        6.3095349303       -1.1623658239
 H       -11.9331315768        3.3805286049       -2.9894877827
 H       -10.9498269024        3.1587405686       -1.5684680903
 H        -8.9822735799        2.5484951870       -3.2680217976
 H        -9.9501396749        2.5586661616       -4.6107594618
 H        -7.6952611255       -1.7084295088       -2.3377533847
 H        -8.6331305558       -0.4729214952       -1.6423983735
 H        -5.9739563723        0.1900488733       -2.7163584922
 H        -6.0434879258       -0.5108197855       -1.0807059299
 H        -4.0037778226        3.5653103965        1.2812132194
 H        -4.6406957224        1.8018104048        1.2216419996
 H        -6.4059271958        3.1955810082        3.0203208488
 H        -4.8438011722        3.7987056110        3.4706593017
 H        -8.6649401023        0.0867351343        4.6935264181
 H        -8.1801780786        0.8765867632        3.1013808525
 H        -9.9944897236        2.4784339085        4.8146858294
 H       -10.6415423298        1.0325674901        4.0937598758
 H       -10.8265220763        5.9432862243        4.1434017205
 H       -11.9581864512        6.3746418765        2.8517805019
 H       -10.3682566056        7.1204655948        2.8836945338
 H       -11.3326258679        3.0415782332        0.3659792909
 H       -12.3368507012        4.3766168681        0.8784990196
 H       -12.7769039143        2.8210866103        1.4128255828
 H       -12.9855124457        4.3902378317        3.4877748568
 H       -11.6052190175        3.9506435233        4.5818086364
 H       -12.6826405062        2.7136361560        3.8677410098
 H        -4.9809948063       -0.3504992443        5.8037013447
 H        -6.5621178408       -0.6037310925        4.9350875159
 H        -6.6736385244        0.0421257567        6.5292388673
 H        -5.5921375990        2.1327540387        7.0113366960
 H        -5.4029177535        3.4843807245        5.8824719029
 H        -4.0714550914        2.2299341109        6.0501658591
 H        -3.9105750470        1.2022813994       -0.8062501330
 H        -3.3600502621        2.7701519421       -1.4956024507
 H        -4.1314340667        1.5551429987       -2.5273986883
 H        -5.0554362061        4.1308383459       -2.6954537416
 H        -6.6852690487        4.1578452336       -1.9775261789
 H        -6.2722993797        2.9199945828       -3.1751611138
 H       -10.0273590067       -2.2321009692       -4.5374196773
 H       -11.3835824652       -1.6657221667       -3.6552487664
 H        -9.8227554050       -1.8295192966       -2.8161342752
 H        -9.8362357093       -0.7598606288       -6.1726976646
 H        -9.1130633144        0.7866120691       -6.0022496637
 H       -10.8942939717        0.5848762657       -5.7665165401
 H       -11.5664502349        5.0548346949       -5.5682710257
 H       -12.2778081944        6.5989394476       -5.1253902651
 H       -12.6948999394        5.2697686414       -4.1152483570
 H        -9.2768955447        5.6867904099       -5.4691404536
 H        -8.5221538747        6.4604037484       -4.0783262487
 H        -9.5794459041        7.3631357253       -5.2422713518
 H       -14.0772306616       10.3389924773       -0.5323595166
 H       -14.0883613414       10.3279137013        1.2459179521
 H       -15.5390399824       10.7140150148        0.2410134798
 H       -16.3841264746        7.0490628673        1.1189857792
 H       -16.4943607793        8.5896329382        1.9647008366
 H       -15.1203761018        7.5775118365        2.2247702459
 Na       -8.7469013983        3.7132475832       -0.0830869188
