117

 C       -17.2456844675        8.9061817854       -1.1175893276
 C       -15.7998962315        8.3609190355       -1.1950776781
 O       -15.3875796089        7.8804401833       -2.2538605460
 C       -14.9580930403        8.5542811100        0.1386781574
 C       -13.6932567363        7.6951904150        0.0326992158
 O       -13.4712964844        6.7422196173        0.6913453208
 C       -12.6817060887        8.2166491030       -1.1157684986
 C       -12.0335099748        7.0136827325       -1.7242210550
 C       -11.1104945421        7.2478868700       -2.8900109538
 O       -10.7520137235        8.3464057675       -3.1631311988
 C       -10.7566494928        5.9442785358       -3.7883862130
 C       -10.3664148335        4.7944141218       -2.7934454079
 O        -9.4962827027        5.0640614395       -1.9779904666
 C       -10.9691217826        3.3551006624       -2.6983209536
 C       -10.1226338515        2.3705053171       -3.4412757283
 C       -10.3764398530        0.8622443398       -3.2035544526
 O       -10.8683853643        0.5650548659       -2.0957120505
 C        -9.7021712698       -0.2712867896       -4.1201849516
 C        -8.2407424953       -0.1371418027       -3.6986290089
 O        -7.4359069183        0.4174280722       -4.4099449832
 C        -7.9192740529       -0.4696639844       -2.2547300061
 C        -6.5653350031        0.1389925948       -1.8030515459
 C        -6.7772317323        1.5051479522       -1.2282507437
 O        -7.8857643341        1.7518128247       -0.8575054766
 C        -5.5639268424        2.4933978050       -1.1005798938
 C        -5.6435508370        3.2658193998        0.2659276708
 O        -6.5650224276        4.0418186384        0.3269696769
 C        -4.6641701935        2.8460995574        1.4428385013
 C        -5.3980194370        2.9399921004        2.8392364650
 C        -5.2957478058        1.5780476020        3.6466383981
 O        -4.8031518340        0.6428519909        3.0466014192
 C        -5.9348570828        1.4642385934        5.0822891053
 C        -7.3926254539        2.0148636328        4.8487656985
 O        -7.6560848367        3.1213387381        5.3445618026
 C        -8.3996035723        1.1684567570        4.0915419778
 C        -9.8061995262        1.7518464683        4.0497026725
 C       -10.1348525687        2.5966243318        2.7681099155
 O        -9.4806538768        2.2858911773        1.8164892314
 C       -11.2225010037        3.7199869400        2.6274340204
 C       -10.4870185283        5.0845362177        2.3657016821
 O        -9.7282053205        5.1007855042        1.4343303098
 C       -10.6713369406        6.3820088226        3.1030097469
 C       -11.9866448661        3.4510062721        1.2097156718
 C       -12.2676217918        3.5795001442        3.7356147039
 C        -5.8768149970       -0.0478264089        5.5395229085
 C        -5.1976491735        2.4488375040        6.0447499046
 C        -4.1861739537        1.7714354466       -1.2940461721
 C        -5.8355649920        3.5617794104       -2.2640817909
 C       -10.3896571214       -1.5541070082       -3.6901171795
 C        -9.8249852950        0.0759444302       -5.6240566345
 C       -11.9361022848        5.7053024708       -4.7844074038
 C        -9.5358388338        6.3963334696       -4.6991074516
 C       -14.6716360511       10.1009911515        0.3710121150
 C       -15.7818589628        7.9916297516        1.3243584191
 H       -17.3503224168       10.0365728970       -0.9294876455
 H       -17.7475539914        8.4089713589       -0.2849576715
 H       -17.8162422140        8.6307269773       -1.9753002908
 H       -11.9401845400        8.9280145811       -0.6990366438
 H       -13.2001911200        8.7777168254       -1.8368167103
 H       -12.8749825363        6.3922922774       -2.1037105158
 H       -11.4047035188        6.3967907875       -1.0936036660
 H       -12.0393808764        3.2611675847       -3.0344790877
 H       -11.0284143251        3.1424537498       -1.6176312955
 H        -9.0304771996        2.4921840381       -3.2976717043
 H       -10.1458042258        2.4918269862       -4.5833251319
 H        -7.9680803683       -1.5511554189       -2.0927198459
 H        -8.7222450594       -0.0553279967       -1.6816828389
 H        -5.8444523480        0.0481607564       -2.5921487870
 H        -6.1907745160       -0.4317725717       -0.8677565592
 H        -3.8739494082        3.5286720528        1.4076135643
 H        -4.3983763235        1.8553664916        1.1528850520
 H        -6.3982408476        3.3640154691        2.7234962355
 H        -4.8731974318        3.7155451980        3.3757805873
 H        -8.4155905706        0.1646889594        4.5334815578
 H        -8.0878433965        1.1861955815        2.9741606198
 H        -9.9386920162        2.4334955723        4.8295039656
 H       -10.5167664103        0.9631838147        4.1910928637
 H       -10.4590514908        6.3401291454        4.1662587607
 H       -11.6474286956        6.6716308614        2.8983491806
 H       -10.0382577524        7.1004710283        2.5906152327
 H       -11.3398283628        3.0722037630        0.3813613833
 H       -12.4253863888        4.3517866273        0.8936264338
 H       -12.7366226795        2.7539925968        1.4493619035
 H       -13.0299082703        4.2766858724        3.4949038343
 H       -11.8416694382        3.7753084968        4.7345464135
 H       -12.7331037949        2.5830035813        3.6031652291
 H        -4.8413941624       -0.3564591949        5.7189987772
 H        -6.2887116034       -0.6711808510        4.7802790399
 H        -6.5721627886       -0.2234694523        6.3913190670
 H        -5.5805415522        2.2626199517        7.0852794290
 H        -5.5203103708        3.4510725897        5.7191406624
 H        -4.1444656339        2.4167693235        6.0153478292
 H        -4.1870351278        0.7925863670       -0.6593515913
 H        -3.3720903558        2.4105713850       -1.0070266284
 H        -3.9747881639        1.5220321199       -2.3526654322
 H        -4.8960116099        3.9658871521       -2.5346484577
 H        -6.3927181016        4.4083856446       -1.8265977085
 H        -6.3588297429        3.1594283105       -3.1527184676
 H       -10.3148458498       -2.4362201562       -4.3173907561
 H       -11.4515606749       -1.3776203103       -3.6794420522
 H       -10.0413778297       -1.7490003192       -2.6580368015
 H        -9.6282073255       -0.8452297174       -6.2313573088
 H        -9.0695056220        0.7796900603       -5.9349866921
 H       -10.7918667661        0.4529277392       -5.8854184371
 H       -11.5825002207        5.1668239802       -5.6459177990
 H       -12.2366499913        6.7090364160       -5.0892983279
 H       -12.7070362745        5.2405232340       -4.1802332640
 H        -9.5452176866        6.0065572356       -5.7426868429
 H        -8.5792648698        6.1506077811       -4.3196057023
 H        -9.5906627209        7.4870949540       -4.8068889471
 H       -14.3076245126       10.6424922168       -0.5081196678
 H       -14.0329262808       10.3301573776        1.2101068222
 H       -15.6523546452       10.5814987163        0.5701538557
 H       -16.3997125882        7.1337917077        1.0617832746
 H       -16.5032229485        8.7067329853        1.7893969793
 H       -15.1233950113        7.7546050479        2.1713740249
 Na       -8.8838101496        3.6219868187       -0.1558509894
