117

 C       -17.2364736475        8.8963876051       -1.0569901494
 C       -15.7520300898        8.4173161079       -1.2679776633
 O       -15.3399807951        8.0486593872       -2.3283504226
 C       -15.0036625922        8.5797111724        0.0840738691
 C       -13.6914089749        7.7576694287       -0.0808042695
 O       -13.4470760861        6.7508048161        0.5738506668
 C       -12.5766733374        8.1620729830       -1.0897640391
 C       -11.9810940046        6.8705414960       -1.6291928574
 C       -11.0628628921        7.2028306042       -2.8560284871
 O       -10.7113823245        8.3030532608       -3.2485414469
 C       -10.7726492178        5.9425764481       -3.7589483583
 C       -10.4215305422        4.7773137901       -2.7753616181
 O        -9.5671468214        5.0036499859       -1.9424606862
 C       -11.0799570664        3.3942392851       -2.9064848278
 C       -10.1739153122        2.4055132352       -3.5951266727
 C       -10.3696992614        0.9113366347       -3.1751216040
 O       -10.8172355951        0.5777478134       -2.1390706638
 C        -9.7923875263       -0.2068682732       -4.0637776533
 C        -8.2241379808       -0.1449779057       -3.6391202781
 O        -7.4261388367        0.3954925004       -4.3915484550
 C        -7.8687419776       -0.5445362772       -2.1904073180
 C        -6.4809980129        0.0188376218       -1.7719904753
 C        -6.8003083774        1.4034233126       -1.1305466080
 O        -7.8614138587        1.6813265987       -0.6739676532
 C        -5.5954147348        2.4563342020       -1.0725537717
 C        -5.6991160577        3.1360697122        0.2807326741
 O        -6.5119810207        4.0161312939        0.5464719133
 C        -4.6870010551        2.8913404185        1.4044536257
 C        -5.3714891504        2.9797543715        2.7426334192
 C        -5.3054193143        1.6501159839        3.4190051686
 O        -4.8412326868        0.6337181800        3.0219380174
 C        -5.9774357336        1.5454063580        4.9586235293
 C        -7.3944678039        2.1195422984        4.9454017322
 O        -7.6673417550        3.2136463532        5.3081841513
 C        -8.3950365534        1.3340947003        4.0611497133
 C        -9.8351604978        1.8943260993        4.0911991940
 C       -10.1024783763        2.6495980973        2.7653846928
 O        -9.4666466107        2.3343574464        1.7756624794
 C       -11.2934121214        3.7093872333        2.6756040889
 C       -10.4998443904        5.0919368680        2.3325432541
 O        -9.8152069357        5.1290771601        1.2990743694
 C       -10.5952103182        6.4090484268        3.2089699314
 C       -12.0204160606        3.4239509514        1.3425366413
 C       -12.2791037707        3.6771893867        3.8561523179
 C        -5.7365864229        0.0736264900        5.3919632633
 C        -5.1479624763        2.3634827577        5.9790498006
 C        -4.2632618162        1.6332682241       -1.1578784177
 C        -5.6907306751        3.5385671192       -2.1962987938
 C       -10.4283408092       -1.6220679580       -3.7061389610
 C        -9.8904785680       -0.0132243775       -5.6177382128
 C       -11.9698359027        5.6159015470       -4.6917877985
 C        -9.5294488912        6.3085751253       -4.6180919261
 C       -14.6582547354       10.0023431548        0.3682066717
 C       -15.7772140691        8.0783075390        1.2818629499
 H       -17.2096374785       10.0064222244       -0.9987247244
 H       -17.6813264867        8.5719369168       -0.0935389931
 H       -17.9413588384        8.6263229994       -1.8268019328
 H       -11.8298827058        8.7579750141       -0.6401797069
 H       -13.0376704309        8.7993707826       -1.8662105357
 H       -12.7395320548        6.1085891018       -1.8593356593
 H       -11.1894186697        6.4321205503       -0.9110871046
 H       -12.1018315408        3.4187184906       -3.3255033151
 H       -11.2036069111        3.0361270339       -1.9117204189
 H        -9.0796663555        2.6637496263       -3.4571434349
 H       -10.1909341068        2.3807118386       -4.6653641935
 H        -7.8617473318       -1.6439291890       -2.2263822903
 H        -8.7136376212       -0.2371965907       -1.4959475781
 H        -5.8907364233        0.1550641769       -2.7040543797
 H        -5.9047018210       -0.6486304266       -1.0510803500
 H        -3.9761231022        3.6631308587        1.2712400428
 H        -4.2559495640        1.9303535202        1.1871214694
 H        -6.4356865785        3.3197329985        2.5971376272
 H        -4.9998776362        3.7713697781        3.3511125671
 H        -8.4316308018        0.2665470498        4.3954687272
 H        -8.0924682087        1.4207030973        2.9977963489
 H       -10.0488253874        2.5882718306        4.9451311673
 H       -10.5384334982        1.0839302337        4.1702621149
 H       -10.2986518024        6.2306534655        4.2489485657
 H       -11.6079207962        6.8295355559        3.1146378204
 H        -9.9137681989        7.1229981175        2.7630957443
 H       -11.3079377323        3.3355504854        0.5869412756
 H       -12.6229599555        4.3373710435        1.1168638075
 H       -12.6442957907        2.4933694955        1.3968674355
 H       -13.0444493667        4.4301934451        3.6011551806
 H       -11.8167487913        3.9166028205        4.7801085402
 H       -12.8234113021        2.6931307567        3.7712163217
 H        -4.7151286963       -0.0759693501        5.6029335091
 H        -6.0597450546       -0.6552287014        4.6665897636
 H        -6.3665852168       -0.0834447284        6.2238954514
 H        -5.5746323186        2.1747266090        6.9946957719
 H        -5.2362132271        3.3853450196        5.7068649906
 H        -4.1121584646        2.1276073040        5.9890311421
 H        -4.3948240970        0.6915681388       -0.5804488216
 H        -3.4112452492        2.2103745378       -0.8185158389
 H        -3.9837202786        1.3831138224       -2.2010928143
 H        -4.6585693126        3.9440348327       -2.3116333396
 H        -6.2489379094        4.3723726902       -1.8341988910
 H        -6.0469534002        3.1526101357       -3.1543253079
 H       -10.0864791063       -2.4240405067       -4.3304046757
 H       -11.5161929727       -1.5293074451       -4.1125941307
 H       -10.3715288514       -1.9022973623       -2.6839822552
 H        -9.4558295394       -0.9115964262       -6.0431830639
 H        -9.2425021109        0.8078057706       -5.9344081837
 H       -10.8625864749        0.1632500833       -6.0648384752
 H       -11.6961285137        4.8774597589       -5.3985463898
 H       -12.2259502454        6.5927895432       -5.2218549414
 H       -12.7363470761        5.3452299910       -3.9551090090
 H        -9.5341367875        5.9859523282       -5.6800540914
 H        -8.6434171332        5.8594534314       -4.2226115875
 H        -9.4113680407        7.3658440575       -4.6142781760
 H       -14.3432324030       10.5933498424       -0.4922888851
 H       -13.9384764467       10.0655211328        1.1222730471
 H       -15.5390182362       10.5582662430        0.7505146149
 H       -16.2577187651        7.0916549406        1.1120161080
 H       -16.6297716485        8.6683487854        1.5874667236
 H       -15.1402534057        8.1083194846        2.1490606927
 Na       -9.0016991217        3.6284346386       -0.1962123304
