117

 C       -17.3792348393        8.9259293268       -1.2550391346
 C       -15.8753781688        8.5623768314       -1.2290299079
 O       -15.3203925653        8.2523776986       -2.2604737101
 C       -14.9488029222        8.5910143234        0.1138190014
 C       -13.5927396490        7.7176203170       -0.1163532262
 O       -13.4906639566        6.6840849024        0.5966118643
 C       -12.5306018861        8.1750976552       -1.0940164746
 C       -11.8292148095        6.9093725006       -1.5975780584
 C       -11.0845798200        7.1395572514       -2.9035504551
 O       -10.7449621177        8.2635294417       -3.1937256221
 C       -10.7361576199        5.8819570743       -3.7880168286
 C       -10.4182395118        4.6684435342       -2.8517643258
 O        -9.6320798152        4.8802866600       -1.9273278170
 C       -11.1424993272        3.3673003080       -3.0358207831
 C       -10.2324913837        2.3757846554       -3.7875799086
 C       -10.4412699383        0.9081623461       -3.2096884836
 O       -10.8696479717        0.7757962573       -2.0970252101
 C        -9.7397497061       -0.2222419084       -4.0638978890
 C        -8.2560311024       -0.2017027367       -3.6079767468
 O        -7.4392270533        0.3426427226       -4.3166195958
 C        -7.8298323582       -0.7923700492       -2.2797137307
 C        -6.5936995054       -0.0231772478       -1.7744185720
 C        -6.7655210144        1.3438013064       -1.1040864376
 O        -7.8590318652        1.6229488010       -0.5619247183
 C        -5.5415930160        2.3781133832       -0.9851635727
 C        -5.7257435222        3.1905991215        0.3299164873
 O        -6.6957290398        3.9153633721        0.5750386330
 C        -4.6377339596        2.9624285073        1.4705270529
 C        -5.2668530661        2.9975861713        2.8406353820
 C        -5.2990827802        1.6676145237        3.4809272428
 O        -4.8823494453        0.6918416921        2.8769114009
 C        -5.8861035903        1.6199879402        4.9002288259
 C        -7.3780031711        2.2191261278        4.8160908526
 O        -7.6751399629        3.2727021707        5.3395153110
 C        -8.4539485692        1.3215264245        4.0612810950
 C        -9.8464711661        2.0639687310        4.1176093866
 C       -10.1529000346        2.6796230907        2.7442920988
 O        -9.4564560936        2.4360484653        1.7573195428
 C       -11.2985400910        3.7856970205        2.6023841711
 C       -10.5091908842        5.0703243709        2.3142617004
 O        -9.9135646138        5.2814512789        1.2677326454
 C       -10.6072882128        6.2135984045        3.3347311096
 C       -12.1793818029        3.3760555109        1.4452253414
 C       -12.1119855947        3.9077756404        3.9049564902
 C        -5.8179474653        0.1306160944        5.2938941609
 C        -4.9917075701        2.4483483322        5.8987717626
 C        -4.2398861743        1.5783390490       -1.1301566447
 C        -5.5694832506        3.3736586342       -2.1188720890
 C       -10.3746680889       -1.5657542957       -3.7281364649
 C        -9.9098416833       -0.0459123261       -5.5802689199
 C       -12.0471320285        5.5814934231       -4.6155660941
 C        -9.4313779573        6.1239335685       -4.6092247064
 C       -14.5382463789       10.0705221188        0.2577989472
 C       -15.6813047895        7.9734441308        1.3039615049
 H       -17.4008544739        9.9598238683       -1.1603641496
 H       -17.9705365652        8.5335594157       -0.4293955792
 H       -17.9053133438        8.6907194762       -2.2226533992
 H       -11.9029676901        8.9105314523       -0.6056548520
 H       -13.1453350302        8.7686962830       -1.8277834961
 H       -12.5797198652        6.1108270516       -1.7079108965
 H       -11.0636939764        6.5835044821       -0.8417418935
 H       -12.0315175235        3.5445388958       -3.5708174431
 H       -11.4181852073        2.9370544772       -2.0734561893
 H        -9.1653220841        2.5527578758       -3.6343252896
 H       -10.2728929463        2.3942606532       -4.8337460284
 H        -7.4648229211       -1.8210385342       -2.5195071691
 H        -8.6563444197       -0.8813995687       -1.5012987709
 H        -5.8916889917        0.1127496460       -2.6652029880
 H        -6.0959271492       -0.6265900520       -1.0549971485
 H        -3.7849703711        3.7119388860        1.3385903584
 H        -4.2647067203        1.9681564046        1.1678315324
 H        -6.2898338248        3.3918257843        2.7101508133
 H        -4.8525960988        3.7818680419        3.5086485674
 H        -8.5531597796        0.4100100239        4.6697547168
 H        -8.1743517208        1.1230765948        3.0557322135
 H        -9.8666605715        2.8885945315        4.9217407816
 H       -10.6896183920        1.3702271049        4.3881696215
 H       -10.2974737372        5.7744480470        4.2903550794
 H       -11.6673476509        6.6647421915        3.3915511063
 H        -9.8752968159        6.9893453788        3.0602195227
 H       -11.6252952852        3.4581024331        0.5091741067
 H       -13.0279329221        4.1111284405        1.4302535882
 H       -12.5126198855        2.3115823134        1.5684244761
 H       -12.9159262626        4.6755964463        3.7718954781
 H       -11.4437237632        4.2231938985        4.7054124822
 H       -12.6065055715        2.9769525603        4.0167913637
 H        -4.8143707829       -0.2083233232        5.3050422623
 H        -6.3632157395       -0.4583311171        4.5609164421
 H        -6.3170032930       -0.0043160916        6.2003529608
 H        -5.4018842475        2.2921792479        6.8331826678
 H        -4.8900616722        3.4840098366        5.6346333310
 H        -3.9389758886        2.0448362974        5.9465264438
 H        -4.1561391111        0.8105899586       -0.4663410021
 H        -3.4148176005        2.3297620515       -1.0999165722
 H        -4.1357323360        1.1633916280       -2.1232916356
 H        -4.6898700625        4.0564263678       -2.0989295296
 H        -6.4198943199        4.0295579071       -1.9760328448
 H        -5.5898196718        2.8300205195       -3.0467154316
 H        -9.7793690631       -2.4535400713       -4.0488663125
 H       -11.2474161954       -1.6679826422       -4.3439263223
 H       -10.5632017727       -1.6911671775       -2.6581137141
 H        -9.4382388402       -0.8246969748       -6.1187988115
 H        -9.5736072620        0.9535233236       -5.9038579937
 H       -10.9889094655       -0.0447432226       -5.8435535854
 H       -11.9552872191        4.5968249971       -5.1389713855
 H       -12.1009061141        6.3476770476       -5.3627514575
 H       -12.8285487448        5.6580022408       -3.8658334196
 H        -9.3969468009        5.6206110386       -5.5371418998
 H        -8.5482995933        5.6755386254       -4.0860512596
 H        -9.2510192398        7.1840118120       -4.7624522510
 H       -14.1177000035       10.5152006184       -0.6198468051
 H       -13.8341916273       10.1887366693        1.1047051721
 H       -15.3350315346       10.7189701344        0.5047196862
 H       -16.0362355380        6.9746423367        1.1519996441
 H       -16.6472632060        8.4333232630        1.4118946365
 H       -15.1935071040        8.1441312233        2.2463686471
 Na       -8.9961786638        3.6415412650       -0.1834278559
