117

 C       -13.0332380861        6.0056826694       -7.7351884574
 C       -11.9452132306        6.7005118781       -6.8804486495
 O       -11.1421033727        6.0671374973       -6.2382745352
 C       -11.8769190571        8.2530777690       -7.0076207244
 C       -11.2420436849        8.8045561674       -5.7123882640
 O       -12.0106182317        9.1646771496       -4.8134671762
 C        -9.7681116233        8.7964110492       -5.4462869728
 C        -9.5098684851        8.8797293364       -3.9621729372
 C        -8.1439303685        8.2170648007       -3.7138896313
 O        -7.2269105657        8.2269090463       -4.5034023715
 C        -7.9136840887        7.4884500508       -2.2141343632
 C        -9.0569528200        6.4487917996       -2.0904400917
 O       -10.0764782953        6.7198601679       -1.4462341497
 C        -9.0927110698        4.9847269543       -2.8533152195
 C       -10.5602173412        4.5272616321       -2.9576847745
 C       -10.8400628925        3.2393378775       -2.0031329151
 O        -9.9100358374        2.7849375805       -1.4149481220
 C       -12.3020419196        2.8371787799       -1.6394811617
 C       -12.3088828774        2.8437506418       -0.0344794255
 O       -11.8624129577        1.8468468067        0.4700815057
 C       -12.9738527289        4.0890063107        0.5517046691
 C       -12.7869386795        4.3079558093        2.1343828306
 C       -11.2942626394        4.4538734496        2.4097413679
 O       -10.4777557111        4.3347296108        1.4888341365
 C       -10.8590656551        4.6668212473        3.8971819609
 C       -10.1492990625        3.2854916044        4.2584219276
 O        -9.2927734363        2.7870171423        3.5594143010
 C       -10.1724745253        2.8523434208        5.7153610239
 C        -9.1837476275        1.7021483925        6.0391420165
 C        -9.6593433104        0.2844372545        5.7144706368
 O       -10.8325024074        0.1263983989        5.3368301976
 C        -8.7467602082       -1.0274703651        5.7963693989
 C        -8.1643096944       -1.0433318883        4.3671812263
 O        -7.2384861024       -0.2698034942        4.0207575120
 C        -8.6752760220       -2.1990097402        3.4393550101
 C        -8.4216387586       -2.1274427353        1.9414719328
 C        -8.1672167883       -0.7213289351        1.4410823054
 O        -9.0934840801        0.0361597232        1.3879569191
 C        -6.7112540760       -0.1562710292        1.1259010731
 C        -6.5141101700        1.3772101488        1.6119497347
 O        -7.2962609718        2.2348436643        1.2914563882
 C        -5.1656539405        1.7524568065        2.3213586238
 C        -5.5740320106       -1.1008157595        1.5232088735
 C        -6.8079038291       -0.0843294719       -0.4185778795
 C        -7.5256660503       -0.6518515721        6.7305348068
 C        -9.4584035973       -2.3440636355        6.1818685523
 C        -9.6420183444        5.6636979083        3.9460298714
 C       -12.1001257223        5.0122492817        4.7807167478
 C       -13.4749681493        3.7874469007       -2.1234830867
 C       -12.6079426585        1.3374119799       -1.9602882466
 C        -6.5122842380        6.8862790850       -2.1733231974
 C        -8.1789347414        8.5258955428       -1.1561908116
 C       -10.8920770494        8.5130956066       -8.2554583466
 C       -13.2935048615        8.8435917694       -7.2302454032
 H       -14.0213144860        5.8695873592       -7.3722666646
 H       -12.7379422004        4.9568873588       -7.8519419236
 H       -13.2062938306        6.4340285232       -8.6702397643
 H        -9.4158838806        9.6959672663       -5.9111900605
 H        -9.3171660229        7.7861405154       -5.7549131673
 H       -10.2714215372        8.3514927632       -3.3326981032
 H        -9.4717376549        9.9173620233       -3.5712569127
 H        -8.4367409617        4.2843362649       -2.2737906988
 H        -8.5015863536        5.1232851044       -3.8310614200
 H       -10.6840236915        4.2416545694       -4.0173893351
 H       -11.1955084263        5.3712285176       -2.7241531232
 H       -14.0771335028        4.0407849080        0.5241514223
 H       -12.6834056626        4.9629428928       -0.0388170356
 H       -13.1844485159        3.4637581048        2.6856394760
 H       -13.3784814362        5.2799184324        2.3261977126
 H       -11.2588744406        2.5847775517        5.9237227442
 H        -9.8504784271        3.6819459814        6.4020072223
 H        -8.7255596332        1.6908256543        7.0366151972
 H        -8.3015190771        1.6974821705        5.4014539014
 H        -9.6873700116       -2.4435328253        3.7635744675
 H        -8.1536972311       -3.0666244965        3.7977511004
 H        -9.2911353448       -2.5781887814        1.3764671256
 H        -7.6735241470       -2.9001990060        1.6683845059
 H        -5.1498603730        1.4511445775        3.3949121654
 H        -5.1652579827        2.7689290070        2.2579198289
 H        -4.2216702525        1.2940037395        1.8758047804
 H        -5.7536952417       -2.1208002498        1.6199580887
 H        -5.2554823914       -0.8318620497        2.6177471755
 H        -4.7145242689       -0.9989021005        0.8331122613
 H        -6.9780460352       -1.0755171949       -0.9000539448
 H        -5.9230243208        0.3191714781       -0.8074237783
 H        -7.5517694509        0.6426182797       -0.6401406725
 H        -7.8822933536       -0.3365703229        7.6807951654
 H        -6.9458553952        0.1649799691        6.2675663481
 H        -6.8519576077       -1.4745846920        6.8883193407
 H        -9.5068940042       -2.4194696436        7.3002986034
 H        -8.6836360009       -3.1032077558        5.8371051318
 H       -10.4696956997       -2.5133537649        5.7202785182
 H        -9.8806210032        6.7568081150        3.8900034839
 H        -8.8734729623        5.3546865316        3.2132620156
 H        -9.0985974309        5.4108078707        4.8559605603
 H       -12.9708023839        5.4683691161        4.2909384620
 H       -11.7607928423        5.7772775193        5.4546733691
 H       -12.5108292564        4.1014555159        5.2129977647
 H       -14.4289882500        3.5110539663       -1.7154938321
 H       -13.5389556920        3.6595489673       -3.1834226683
 H       -13.2633351483        4.8984748995       -2.0465961143
 H       -13.3672630510        1.0431223964       -1.2494148218
 H       -11.7214103657        0.7536720519       -1.6606456035
 H       -12.9870677759        1.2445098400       -2.9799463313
 H        -5.8169360107        7.6514746593       -2.4603688751
 H        -6.4315003574        5.9820248510       -2.8046002977
 H        -6.2665010977        6.5550100481       -1.1643987302
 H        -7.3054643344        9.1965029570       -1.1155757780
 H        -8.2415044600        7.8792280534       -0.2365691091
 H        -9.1490590814        8.9932213475       -1.2463697346
 H       -10.0262496871        7.8195491017       -8.2978068545
 H       -10.5766099889        9.5431086085       -7.9804728745
 H       -11.4429505533        8.4525157259       -9.1639978521
 H       -13.4847567144        9.5674651339       -6.4605749525
 H       -14.1608188880        8.2256248680       -7.3763404092
 H       -13.3393294741        9.4420652375       -8.1124592115
 Na       -9.5613837673        2.1902455605        0.9525746297
