117

 C       -17.2103624009        8.8379235197       -1.3115764058
 C       -15.7048559638        8.8161162703       -1.3083099391
 O       -15.1661584127        8.8954291107       -2.3821282063
 C       -14.8416408289        8.7151320449       -0.0420733239
 C       -13.7455788990        7.7247494933       -0.2805364627
 O       -13.6652770362        6.7339894234        0.3633191308
 C       -12.5828018414        8.0616161534       -1.3958336585
 C       -11.5151335301        6.8662162023       -1.4664663107
 C       -10.8936020841        7.0735240402       -2.8757591106
 O       -10.4675271685        8.1490187406       -3.2264027793
 C       -10.7739337397        5.7233936652       -3.7963343729
 C       -10.5303934091        4.4326905995       -2.8854877808
 O        -9.5854559933        4.4827721210       -2.0903872390
 C       -11.3819969315        3.1636451217       -3.0991237867
 C       -10.7727697910        2.0704149394       -4.0960544028
 C       -10.5346599959        0.7485063682       -3.3387780421
 O       -10.9840681170        0.5822818583       -2.2081523269
 C        -9.7630360913       -0.4592999477       -3.9042042021
 C        -8.2576650980       -0.2433640412       -3.4276257272
 O        -7.5606824827        0.5640890715       -3.9842864051
 C        -7.6986818646       -1.0523597461       -2.2294451602
 C        -6.5358074135       -0.3064211354       -1.5345227586
 C        -6.9193305965        1.0927440418       -1.0345284451
 O        -8.0546638840        1.4261874457       -0.8496131275
 C        -5.6249846666        2.0037535916       -0.7943116726
 C        -5.8033632756        2.8598971284        0.5323488253
 O        -6.8835780406        3.3235192439        0.7961406290
 C        -4.5030725325        3.2701005679        1.3611330796
 C        -4.8148144487        3.4143443991        2.8007930633
 C        -5.4587176597        2.0572288829        3.2357579298
 O        -5.5580014426        1.2060894274        2.4055026326
 C        -5.8210458396        1.7298502262        4.7493403307
 C        -7.2243826727        2.4315791734        4.7881285567
 O        -7.1870356377        3.6175121260        5.0115804743
 C        -8.4566245768        1.5805364557        4.4625534682
 C        -9.8065413735        2.3619481911        4.4819322741
 C       -10.1755421570        2.9148912472        3.0873474679
 O        -9.5417174999        2.5397427238        2.1252456713
 C       -11.3552963770        4.0413432064        2.7903184719
 C       -10.5225981174        5.3193357042        2.2712655062
 O       -10.1375093701        5.3485708020        1.1287762802
 C       -10.2806190395        6.4536697577        3.3123467149
 C       -12.2796115250        3.5218123649        1.6851980281
 C       -12.2610873173        4.3915611904        3.9983190076
 C        -5.9146475446        0.1706821668        4.9660607696
 C        -4.8428199532        2.4724116207        5.6878683315
 C        -4.2676752081        1.2574301200       -0.7682525416
 C        -5.6076242281        3.0143771525       -1.9552226947
 C       -10.2686672167       -1.8500541444       -3.5334848586
 C        -9.7501351941       -0.2424620421       -5.4111393781
 C       -11.9909314703        5.6629359533       -4.7367250461
 C        -9.5326371968        6.0212541932       -4.7030338633
 C       -14.1767384293       10.0664397108        0.2141965000
 C       -15.5653255045        8.2561678328        1.2368920943
 H       -17.6585282186        9.4404553544       -0.4568507644
 H       -17.5973197262        7.8286432347       -1.2507867181
 H       -17.5477315665        9.2641909966       -2.2133537965
 H       -12.1221229761        9.0197154376       -0.9651718214
 H       -12.9238503392        8.2518160166       -2.3980658561
 H       -11.9889899093        5.8331231107       -1.4803771977
 H       -10.7849200402        6.8447798656       -0.6710938275
 H       -12.3089300482        3.4951893994       -3.4721123305
 H       -11.5097544996        2.6969219263       -2.1353327572
 H        -9.9082480377        2.4411913849       -4.5231270666
 H       -11.5201566095        1.8468283310       -4.8950591361
 H        -7.2905556853       -2.0856470767       -2.5099234119
 H        -8.4741762489       -1.1454374185       -1.4586556319
 H        -5.6837294387       -0.2022328027       -2.2061818083
 H        -6.0906678285       -0.8119006814       -0.6782160069
 H        -4.0473227363        4.1544884592        0.8191513301
 H        -3.6043316127        2.6261972687        1.1929317606
 H        -5.4046114513        4.2773336119        3.0914178253
 H        -3.8141047434        3.5674972425        3.3051639946
 H        -8.3958442527        0.7469473276        5.1298313071
 H        -8.3287308913        1.1977839628        3.4507221201
 H        -9.8516643430        3.2208144164        5.1962604190
 H       -10.6956995368        1.7238265578        4.8522290310
 H        -9.1829258443        6.5553954508        3.5147356017
 H       -10.8990826979        6.2937216848        4.1663276991
 H       -10.5138074937        7.4632678187        2.8561360086
 H       -11.7027192894        2.8599062799        0.9658079260
 H       -12.7432646699        4.4063793453        1.2423571557
 H       -13.0754361073        2.8855558383        2.0855277977
 H       -13.0301683984        5.1047438500        3.7470590407
 H       -11.5949877214        4.8220481946        4.7966965765
 H       -12.6580698489        3.4442472004        4.3907987461
 H        -4.9471094245       -0.2320793215        5.1598152551
 H        -6.2704163445       -0.2515288951        4.0947733323
 H        -6.5412218110       -0.0692819532        5.8141571269
 H        -5.1207097617        2.2912184940        6.7511121755
 H        -4.9199718339        3.5509649252        5.5387698566
 H        -3.8481334724        2.1703203940        5.5787030717
 H        -4.1701465531        0.6324179339        0.1765114735
 H        -3.5391631401        2.0071083117       -0.7381211061
 H        -4.0271105813        0.6075603992       -1.5845526699
 H        -4.6402002198        3.3471480106       -2.2310041151
 H        -6.2690388166        3.8836924165       -1.7286681474
 H        -6.0056525104        2.4675822820       -2.8328004149
 H        -9.5472298926       -2.5433453131       -3.9771759523
 H       -11.3194578405       -2.1206046694       -3.6738413501
 H       -10.1312574753       -2.0269853477       -2.4479833252
 H        -9.3126519291       -1.1226087953       -5.9521384946
 H        -9.2393931724        0.6549497001       -5.7128147623
 H       -10.7687148847       -0.2025025378       -5.7806785054
 H       -12.0484799753        4.7219363316       -5.3176004969
 H       -11.9484096734        6.6038771378       -5.2980484764
 H       -12.8659343560        5.7237199076       -4.0592114967
 H        -9.4013080342        5.2082121781       -5.4277980080
 H        -8.6164424646        6.1608585581       -4.1882927962
 H        -9.7457602304        6.9726556392       -5.2028657562
 H       -13.6064892857       10.3795738252       -0.6446149667
 H       -13.4284813410        9.9165115407        0.9999623110
 H       -14.7571638204       10.9063961680        0.5328376779
 H       -16.2549312507        7.4314623944        1.1212237643
 H       -16.1606218789        9.0602174549        1.7295536495
 H       -14.8746387001        7.8673562202        1.9918179267
 Na       -9.1371709944        3.3401464943       -0.1265863952
