117

 C       -17.2631696199        8.8283096945       -1.2615100987
 C       -15.6746259046        8.8919586658       -1.4167100025
 O       -15.1102174284        9.0379844120       -2.4611109531
 C       -14.7824902633        8.7319077843       -0.1011923674
 C       -13.6784199976        7.6869309828       -0.3360806951
 O       -13.5424102266        6.6236549795        0.2632726954
 C       -12.6255904845        8.0539294305       -1.3512460258
 C       -11.7173384249        6.8664857309       -1.5532880865
 C       -10.8355315287        6.9023481941       -2.8175615560
 O       -10.4380924245        7.9883046663       -3.1932304421
 C       -10.7162415302        5.7028081330       -3.7766327083
 C       -10.4199455764        4.3951298121       -2.9981431062
 O        -9.6073259420        4.4081138630       -2.0999240474
 C       -11.2874613282        3.1148447737       -3.1275783303
 C       -10.7005280493        2.0264279785       -3.9832315059
 C       -10.5901210895        0.6549761304       -3.1763471349
 O       -11.0339603801        0.5542803855       -2.0957440936
 C        -9.7101018991       -0.5032196606       -3.9452509305
 C        -8.3123183772       -0.2379736497       -3.3601439034
 O        -7.6344655129        0.6645099332       -3.8423680729
 C        -7.8072739677       -1.0044583672       -2.1481817012
 C        -6.5913689545       -0.3544443775       -1.4838364430
 C        -6.8612475710        1.1100327819       -1.0102460746
 O        -8.0226352859        1.4110874642       -0.8142214490
 C        -5.6355757722        2.0920404345       -0.8007512403
 C        -5.7719540496        2.9144505352        0.4803647899
 O        -6.9069778531        3.2984982041        0.8884784764
 C        -4.5712926468        3.3057522695        1.2967389992
 C        -4.8310300846        3.4257744224        2.7885801343
 C        -5.4112037200        2.0552504136        3.1370069503
 O        -5.7729268413        1.3253944320        2.2673211907
 C        -5.8239077485        1.7419995550        4.6651344557
 C        -7.2076316935        2.5161724401        4.8338599589
 O        -7.2575711445        3.6992371827        4.8722026626
 C        -8.5213405802        1.6879345568        4.5294235689
 C        -9.8217965242        2.5011391877        4.4729179816
 C       -10.1570680704        2.9831329352        3.0865796737
 O        -9.5516964832        2.5561483755        2.0971112630
 C       -11.3061584646        4.0252092565        2.8291071701
 C       -10.4935048544        5.2767594116        2.2887901719
 O        -9.9755900256        5.2755677509        1.1592536055
 C       -10.2029591562        6.4834095205        3.1582773658
 C       -12.2693856906        3.4403239986        1.7750829095
 C       -12.2131063260        4.4687021851        3.9831353595
 C        -5.8828171539        0.2452886351        5.0185725765
 C        -4.7817893318        2.3410483576        5.6153533126
 C        -4.3664776988        1.1227515146       -0.7426354651
 C        -5.5485852697        3.1456346726       -1.9474752553
 C       -10.3648228270       -1.8062990168       -3.5476010308
 C        -9.6727656258       -0.2379734305       -5.5374380114
 C       -12.0122147523        5.6395056699       -4.6689769150
 C        -9.5205679174        5.9434689537       -4.7509942040
 C       -14.1331033484       10.0959251334        0.2136578835
 C       -15.5319540208        8.3584136121        1.2773790011
 H       -17.6415645350        9.2984747009       -0.3505379079
 H       -17.6200983744        7.8164030016       -1.2783057521
 H       -17.7154568015        9.3226127745       -2.0904527401
 H       -12.1325009953        8.9829702869       -0.9423424136
 H       -13.1090427796        8.2548901649       -2.3173463328
 H       -12.2183696967        5.9154934563       -1.4384987007
 H       -11.0227152605        6.8546198764       -0.7343663284
 H       -12.2547425891        3.3913471307       -3.5704946271
 H       -11.4221991748        2.7605453022       -2.1247413995
 H        -9.7596539680        2.4003288662       -4.3657940081
 H       -11.4151972805        1.8839633049       -4.7710849934
 H        -7.3591580630       -1.9410017854       -2.5051893950
 H        -8.5628806038       -1.2273057419       -1.4111100853
 H        -5.8697267750       -0.3421542760       -2.2237528051
 H        -6.1121666748       -0.9688817942       -0.6919777092
 H        -4.0910996397        4.1796219237        0.8119720216
 H        -3.7369534251        2.6207902378        1.0176658458
 H        -5.6909894454        4.1462871625        2.9842520212
 H        -3.9800467054        3.8030803503        3.3520133598
 H        -8.5638765391        1.0006217451        5.3161666135
 H        -8.4393489438        1.0897496158        3.6245826451
 H        -9.9286582435        3.3538841886        5.1818437082
 H       -10.6654293225        1.8314988480        4.8175725065
 H        -9.1175931992        6.7079043379        3.3288865157
 H       -10.8515078623        6.4216146698        4.0503143638
 H       -10.4950622678        7.3660636032        2.5695338007
 H       -11.7639885667        2.8683461437        1.0478916369
 H       -12.8700904931        4.3149309040        1.3824011216
 H       -13.0153147593        2.7373467894        2.2662705821
 H       -12.5923057697        5.4243254189        3.6535391195
 H       -11.7171977722        4.6331055175        4.9090017285
 H       -13.0602126549        3.7349876636        4.1478271161
 H        -4.8863531168       -0.1251324348        5.0473911758
 H        -6.4496840504       -0.3642153078        4.3251973756
 H        -6.2401168274        0.1816460944        6.0236749925
 H        -5.0611890166        2.1638930947        6.6952056948
 H        -4.8203338016        3.4225075055        5.5365903141
 H        -3.7884559200        1.9920020523        5.4640855800
 H        -4.4396571384        0.4002569690        0.0597427402
 H        -3.4484825080        1.6426323939       -0.6140039339
 H        -4.2126801665        0.6097620208       -1.6840597623
 H        -4.5164034863        3.5088276031       -2.0843310510
 H        -6.2398054336        3.9631083891       -1.7715529817
 H        -5.8217760596        2.6494925687       -2.8952892056
 H        -9.7202819381       -2.6109057251       -3.7613695129
 H       -11.4220319400       -1.9329392520       -4.0138834077
 H       -10.6070240796       -1.8700151860       -2.5138097301
 H        -9.0188431286       -0.9201280346       -6.1232138135
 H        -9.3538282327        0.7787956187       -5.8016379132
 H       -10.6756141096       -0.4173158697       -5.9347673055
 H       -12.0525065215        4.7068131064       -5.1268760932
 H       -11.9614162943        6.5396486061       -5.3491243262
 H       -12.8774800390        5.7640670688       -4.0168852600
 H        -9.6516635225        5.3569580584       -5.7245324586
 H        -8.5968147878        5.6698610953       -4.2807340557
 H        -9.4341586345        7.0018115987       -4.9146519389
 H       -13.7218702911       10.6334561784       -0.6456279668
 H       -13.3605012655       10.0531108114        0.9090808000
 H       -14.8999851472       10.7654857802        0.6555307123
 H       -16.0527247457        7.3693958882        1.2364289675
 H       -16.2226754840        9.0978272503        1.6517998726
 H       -14.8502710551        8.1323151730        2.0706210265
 Na       -9.1877502247        3.2293939906       -0.0218714498
