117

 C       -17.1303368354        8.7181856356       -1.2421072779
 C       -15.5933566370        9.0404362027       -1.3658814789
 O       -15.0861219671        9.3725841263       -2.4141322809
 C       -14.7551856759        8.8488835881       -0.1121476056
 C       -13.7062354773        7.6822497448       -0.3404887440
 O       -13.7657790311        6.6567204691        0.2608220144
 C       -12.6469750691        8.0037978614       -1.3888554881
 C       -11.8083036162        6.6433207976       -1.7197449509
 C       -10.7829141099        6.7779923102       -2.9250387125
 O       -10.0440189795        7.7092391142       -3.0899873484
 C       -10.6110029813        5.4639716178       -3.8404351880
 C       -10.4343337675        4.2603091806       -2.8206438714
 O        -9.4984820661        4.4515112408       -2.0274420595
 C       -11.2820387950        3.0331110229       -2.7992814986
 C       -10.4945588212        2.0758094477       -3.7645146071
 C       -10.6907657192        0.6511799664       -3.2272803604
 O       -11.2380790247        0.3999698372       -2.2012802871
 C        -9.8407925065       -0.4769180334       -3.9720475058
 C        -8.4414033745       -0.2570624509       -3.1690905268
 O        -7.8878130874        0.7397327536       -3.5638282672
 C        -8.0482074015       -0.9431877684       -1.8806312681
 C        -6.7095796444       -0.4377037899       -1.2828370342
 C        -6.8905394915        1.0513239133       -0.9277935175
 O        -8.0113128823        1.5341749432       -0.8802443508
 C        -5.7251859899        2.0083628320       -0.7943052965
 C        -5.9296580960        3.0071406508        0.3243983167
 O        -7.0337708728        3.5440190957        0.4698966933
 C        -4.7377913372        3.5365174266        1.2429676802
 C        -4.8362459310        3.2881003348        2.7141100467
 C        -5.6381431572        2.0003935175        3.0347587864
 O        -5.9285710261        1.2345470250        2.1996390226
 C        -5.9911661596        1.8243658182        4.5964540213
 C        -7.2774346805        2.6820954526        4.7659079699
 O        -7.1879730796        3.8626474049        4.6780792653
 C        -8.6459569093        1.8965880385        4.9382467238
 C        -9.7972939722        2.8267183721        4.7482272898
 C       -10.0396082459        2.9359499203        3.2417391701
 O        -9.6097105059        2.1295713842        2.3817438169
 C       -11.0739912976        4.1370512784        2.8263726844
 C       -10.2368028310        5.2595999916        2.1641982175
 O        -9.7018411405        5.1060409445        1.0567283822
 C       -10.1599401176        6.6684660238        2.7332685761
 C       -12.0900624878        3.6488462760        1.7660158442
 C       -11.9375247208        4.5938863741        4.0284994980
 C        -6.1619493735        0.2989797026        4.8890235108
 C        -4.9183552891        2.5523574030        5.4670987896
 C        -4.3778995133        1.2774347930       -0.6859257877
 C        -5.7136509824        2.9390261183       -2.1003260682
 C       -10.3031997439       -1.9115792355       -3.5589313777
 C        -9.6325539719       -0.2916525596       -5.4756733522
 C       -11.9069064493        5.3848404674       -4.7588603085
 C        -9.3871749525        5.4934081696       -4.8025177955
 C       -13.9605812424       10.1796298404        0.0826422577
 C       -15.4324073414        8.4720997996        1.2396719428
 H       -17.7492828057        9.5216505109       -0.6942951016
 H       -17.3297032993        7.8173527259       -0.6370270824
 H       -17.4893367078        8.5199520256       -2.2319703821
 H       -11.9331332784        8.7029684983       -0.8656339516
 H       -13.1138113002        8.4357722487       -2.2271482981
 H       -12.4436433518        5.7402620208       -2.0611439830
 H       -11.3338834844        6.2198051579       -0.8287052926
 H       -12.2898515004        3.2300283526       -3.1411375533
 H       -11.3009588584        2.4879358088       -1.8310153343
 H        -9.4662597653        2.2568424196       -3.6254237155
 H       -10.8446865226        2.2779410643       -4.8247346364
 H        -7.9951917329       -2.0869875884       -2.0079761114
 H        -8.8299679156       -0.7337361317       -1.1219880540
 H        -5.9074312175       -0.4283314824       -2.0177766313
 H        -6.2567990133       -1.0254875691       -0.4361032920
 H        -4.6890943262        4.6456181277        1.1624300135
 H        -3.8172668316        3.2383498266        0.7031117792
 H        -5.3329389645        4.1750851416        3.0610744100
 H        -3.8244897473        3.2856784309        3.1601494572
 H        -8.6181619944        1.5197620304        5.9609340527
 H        -8.6297048312        0.9933915653        4.2725162707
 H        -9.5526891887        3.8048885615        5.1447705204
 H       -10.7028510611        2.5224852387        5.3346811217
 H        -9.1326771826        7.0269750576        2.7177589573
 H       -10.6154081626        6.7306402861        3.6808973945
 H       -10.5962006769        7.3395398286        2.0087761130
 H       -11.7027490144        3.8456396818        0.7887879269
 H       -12.9977708185        4.2460651193        1.8617708509
 H       -12.3736283905        2.6152816295        1.9121683767
 H       -12.8803890599        5.0424806967        3.7823784448
 H       -11.3529320289        5.2398935673        4.6936760496
 H       -12.1629593683        3.7220586050        4.7102475152
 H        -5.2064995511       -0.2231871428        4.6988056416
 H        -6.8586212026       -0.1156217806        4.1755094899
 H        -6.4446810954        0.1172093238        5.9575598560
 H        -5.1097813072        2.3927973509        6.5718134096
 H        -5.0656638189        3.6225800530        5.4302340980
 H        -3.9438200979        2.3283168673        5.2247592960
 H        -4.2524054363        0.8563361295        0.3707034468
 H        -3.5402190558        1.9263533915       -0.7323785628
 H        -4.1647740435        0.5761233474       -1.5020566518
 H        -5.1811972341        3.8360229812       -1.9353796493
 H        -6.7310631218        3.0428837753       -2.4816849784
 H        -5.1779633641        2.3805366008       -2.8884682518
 H        -9.5740192494       -2.6646324138       -3.7704048161
 H       -11.2740850051       -2.3158172362       -4.0504885613
 H       -10.6204506686       -1.9443552220       -2.5335993237
 H        -9.2750850194       -1.1753788654       -6.0406854451
 H        -8.8586998400        0.4163371161       -5.6131316868
 H       -10.5386806396        0.0062804471       -5.9347598798
 H       -11.6941965283        4.6213790321       -5.5037645729
 H       -12.1212410297        6.3636968358       -5.3190836607
 H       -12.8221838778        5.0975935425       -4.2002342641
 H        -9.8082425059        5.1672899045       -5.7752996583
 H        -8.6374762796        4.8529408443       -4.4268779700
 H        -8.9099280693        6.4695076423       -4.9483562493
 H       -13.2147340681       10.5361391798       -0.6489520143
 H       -13.3996956686       10.0777662449        1.0070012546
 H       -14.6561985748       11.0130343778        0.2786190296
 H       -15.9116020252        7.5040280840        1.2309874749
 H       -16.0280990091        9.3100038252        1.6119432413
 H       -14.7304402271        8.2731215411        2.0470671329
 Na       -9.1072082202        3.1683948607       -0.0568331088
