117

 C       -12.9634508569        5.9382964759       -7.8724776866
 C       -11.9651182072        6.6860758543       -7.0343916981
 O       -11.2532294834        6.0297030211       -6.2232767740
 C       -11.9096617864        8.3122104024       -7.0593581056
 C       -11.3423523972        8.6667118340       -5.6635619210
 O       -12.1163798665        8.8781094357       -4.7611227373
 C        -9.7955157349        8.6737937968       -5.5648538848
 C        -9.3877594522        8.7873484471       -4.0176284695
 C        -8.1216614214        8.1013128390       -3.7166335738
 O        -7.2008039184        8.0307507239       -4.5149425517
 C        -7.9813332924        7.3624957611       -2.2838587985
 C        -9.2506650425        6.3134447380       -2.2037905914
 O       -10.1353394486        6.6839398765       -1.5320517068
 C        -9.3109243137        5.0336038283       -3.0328318592
 C       -10.6931706956        4.3698663692       -2.9764411222
 C       -10.9224798827        3.3553035426       -1.9110041147
 O        -9.9805856317        2.8203825045       -1.2704279911
 C       -12.3641155684        2.7696803536       -1.5564101201
 C       -12.4212641833        2.9201137234       -0.0196184213
 O       -11.8382944775        2.1230374563        0.7332739223
 C       -12.9699256855        4.1482081513        0.5339892589
 C       -12.7908369063        4.1713000954        2.0735291619
 C       -11.2965976746        4.4675801668        2.3887493734
 O       -10.3945685664        4.5190615676        1.5488790775
 C       -10.7810699795        4.6364578522        3.9164035917
 C       -10.0377089379        3.3765039609        4.2884646707
 O        -9.3327746726        2.9227776989        3.4322241060
 C       -10.2684605070        2.7783878235        5.6943081759
 C        -9.1623283828        1.8004784498        5.8986013712
 C        -9.7790099913        0.3360027557        5.7026406213
 O       -10.9132821485        0.1637733869        5.3359814360
 C        -8.6015127177       -0.8560613275        5.8562325930
 C        -7.9961277738       -1.0032735895        4.3652934044
 O        -7.1537225281       -0.2495494677        4.0211105585
 C        -8.4809947022       -2.2326409904        3.5579595081
 C        -8.3068128365       -2.1613077575        1.9946487768
 C        -8.1003040988       -0.7139358214        1.5752212956
 O        -9.1589396023       -0.0713711193        1.3777406546
 C        -6.7250728516       -0.1108127405        1.1142614245
 C        -6.4626780579        1.3253144215        1.6247792457
 O        -7.1475560153        2.2461470216        1.2061278978
 C        -5.3437440351        1.6204221913        2.4975238702
 C        -5.5228352252       -1.0156585760        1.5090100677
 C        -6.8538844512       -0.0181204870       -0.4673207196
 C        -7.3509724435       -0.5897579527        6.7219195676
 C        -9.3486558054       -1.9996421517        6.4047449940
 C        -9.6671154804        5.7184248382        4.0922301427
 C       -12.0069185300        4.9492851824        4.7868492297
 C       -13.3973212109        3.8180261576       -2.1421751792
 C       -12.5665358513        1.2761219970       -1.9605674385
 C        -6.6045724347        6.7825104944       -2.1941892716
 C        -8.1897141092        8.5544499537       -1.2631311577
 C       -10.9939721376        8.6195166526       -8.2813969509
 C       -13.3503215261        8.8295310887       -7.2465166773
 H       -13.8543285878        5.6901229494       -7.4148730047
 H       -12.6452718823        5.0304940771       -8.2403265833
 H       -13.3355670776        6.6109563715       -8.7335303427
 H        -9.3413984437        9.4938570766       -6.2031786846
 H        -9.6174243864        7.6733904597       -5.7899351393
 H       -10.1748434160        8.4630590541       -3.2642739058
 H        -9.1339280488        9.7649887644       -3.7694473399
 H        -8.3952257922        4.4822881285       -2.7862654297
 H        -9.0201062256        5.4461818626       -4.0129580456
 H       -10.8920977399        3.8921428448       -3.8727926590
 H       -11.3468801561        5.1923809375       -2.8378793234
 H       -14.0024684923        4.3018526155        0.4559934194
 H       -12.5137441024        5.0206000873        0.1045812828
 H       -12.9054128844        3.1678912793        2.5232117489
 H       -13.5378354332        4.9428566745        2.3695507767
 H       -11.2003113906        2.2457645512        5.7502759512
 H       -10.1979759837        3.5510832903        6.4548732267
 H        -8.6179314346        1.8656417529        6.7931854564
 H        -8.4061086169        1.7589957759        5.1508492751
 H        -9.5533715286       -2.0908818121        3.7767610835
 H        -8.3292142307       -3.2210882285        4.0667110885
 H        -9.1134372910       -2.6083992420        1.4929609130
 H        -7.5020042098       -2.8253945924        1.6074929244
 H        -5.4016923372        1.1412803522        3.4592875271
 H        -5.2517825943        2.6942801514        2.6014603172
 H        -4.4745687085        1.1764607741        1.9991862722
 H        -5.6327727281       -2.1135582349        1.4633970256
 H        -5.1922736933       -0.8414901593        2.4974928929
 H        -4.6894377144       -0.8303850344        0.7620239548
 H        -6.8407583696       -0.9792510293       -0.8863447436
 H        -5.9712372002        0.4247651551       -0.8360510966
 H        -7.6685871815        0.6476818310       -0.8069802727
 H        -7.4700510370       -0.4481262907        7.8043452363
 H        -6.6894570593        0.1749860945        6.2736323907
 H        -6.8473944528       -1.4674635275        6.5591622811
 H        -9.4490820537       -1.9214077419        7.4816354468
 H        -8.7546206288       -2.9098927091        6.1642719736
 H       -10.3580221921       -2.0118607869        5.9301995360
 H       -10.0935931417        6.6754629740        4.3145428288
 H        -8.8740187494        5.7440648561        3.3441294926
 H        -9.0824331486        5.3523255742        5.0015415715
 H       -12.5597249357        5.9182847895        4.6188250667
 H       -11.5978358200        4.9632555923        5.7883285989
 H       -12.7182097825        4.2073580572        4.6541587650
 H       -14.4869783498        3.7257109946       -1.8785020740
 H       -13.3314134420        3.8051879151       -3.1981700027
 H       -13.0192077212        4.8541892967       -1.9235578825
 H       -12.8993268443        0.6981952955       -1.1075005957
 H       -11.5685613326        0.9360105773       -2.1902677137
 H       -13.2537271826        1.2141617698       -2.8316531366
 H        -5.8321436395        7.5098099165       -2.4455477522
 H        -6.4735211522        5.8548720645       -2.7322256093
 H        -6.4895632196        6.4960367660       -1.1540685303
 H        -7.3109602999        9.1883978286       -1.4517898104
 H        -8.2453342594        8.1501230774       -0.2473017959
 H        -9.1712124332        9.0222363995       -1.3793735152
 H       -10.0699599435        8.0163193276       -8.2871983675
 H       -10.8154371422        9.6479607650       -8.1896369155
 H       -11.6010304627        8.3520689007       -9.2224073348
 H       -13.5264463957        9.6388110934       -6.4700111292
 H       -14.0811946222        8.0520068779       -7.0707788813
 H       -13.6717927415        9.2688998147       -8.1335269382
 Na       -9.4102794311        2.2077298644        0.9790061786
