117

 C       -16.8510847237        8.5529775593       -1.3100554109
 C       -15.4135293775        9.1152308675       -1.4123107192
 O       -15.0021118282        9.6705746552       -2.4298349268
 C       -14.4863329318        9.0629550648       -0.1205835995
 C       -13.5427121095        7.7971160599       -0.3588683546
 O       -13.7837528225        6.6983867693        0.1625287436
 C       -12.6208474481        7.9856023727       -1.5381535936
 C       -12.1270661362        6.5612982781       -1.9463772851
 C       -10.8760901404        6.6330828093       -2.9095765891
 O       -10.0940883522        7.5418301107       -2.9193540470
 C       -10.5559154480        5.2928897012       -3.6919730204
 C       -10.3510087348        4.1999901143       -2.5574110054
 O        -9.5218944089        4.3566509582       -1.6715803827
 C       -11.2345548394        2.9386234743       -2.5133151090
 C       -10.7404155917        1.7823961345       -3.5663779704
 C       -10.9064290436        0.2977905579       -3.2246436857
 O       -11.8457764739       -0.0835924892       -2.6115649251
 C        -9.8204291379       -0.7445811389       -3.7325564764
 C        -8.4101047970       -0.4299374271       -3.0562687155
 O        -7.5970186928        0.2886050247       -3.6501327606
 C        -8.0226868676       -1.1519814191       -1.8489085431
 C        -6.8214597984       -0.4937963239       -1.1389450918
 C        -7.0257486356        0.9705426066       -0.8244424644
 O        -8.1442927339        1.3600993003       -0.5540620779
 C        -5.8001388773        1.9509920669       -0.9008010492
 C        -5.9371150753        3.0957695029        0.2050632916
 O        -6.9990596887        3.7486589435        0.2092367405
 C        -4.8001597061        3.4680181935        1.1468847335
 C        -5.1784241731        3.5808921699        2.6008514972
 C        -5.5470943585        2.0935152389        2.9940369731
 O        -5.7304015268        1.2766761281        2.1280001248
 C        -6.0435579113        1.9306021020        4.4328421856
 C        -7.3577148482        2.7970288504        4.5566354576
 O        -7.3171768938        4.0018332226        4.4827388474
 C        -8.7115139278        2.0453176211        4.9271506892
 C        -9.8653387103        3.0027886643        4.7816351990
 C       -10.0637697256        3.3183051937        3.2891714991
 O        -9.4055690147        2.6723634218        2.4998166546
 C       -11.1120846573        4.4119020025        2.7567723182
 C       -10.2289086594        5.5200029122        2.1507104460
 O        -9.4983758431        5.2942434670        1.2341735583
 C       -10.2028895102        6.9331278762        2.6388307232
 C       -12.0914736312        3.9060252345        1.5961490600
 C       -11.9097008563        4.9952107418        3.8880842798
 C        -6.2807865724        0.4484794944        4.5899877996
 C        -4.9326321891        2.4214408309        5.4011452942
 C        -4.4704759492        1.1052891759       -0.7861848860
 C        -6.0070289953        2.7115902935       -2.2654809387
 C       -10.2602042646       -2.1578128817       -3.4408057789
 C        -9.5999519604       -0.5214390492       -5.2844248914
 C       -11.6628958848        4.9867367270       -4.7296246126
 C        -9.1815904443        5.4627109441       -4.5158105545
 C       -13.6604426258       10.3262336179       -0.0280609198
 C       -15.1297381933        8.7103084268        1.2437672867
 H       -17.4951689538        9.2510001185       -1.8713770410
 H       -17.2645227430        8.4557922867       -0.3069568516
 H       -16.8498857994        7.6161799697       -1.8654402312
 H       -11.7817184739        8.6343398832       -1.1924159967
 H       -13.1396114427        8.4580974916       -2.3117604930
 H       -12.9632429822        6.0152978210       -2.5215417123
 H       -11.8278719174        5.9017649609       -1.1368748982
 H       -12.2926674298        3.2361043129       -2.6746873188
 H       -11.1893151237        2.4782115388       -1.4811666420
 H        -9.7265707056        2.0192105781       -3.9178526974
 H       -11.4665023644        1.9199948632       -4.4665939299
 H        -7.7117576383       -2.2045689222       -2.0856475457
 H        -8.8608779061       -1.3115120293       -1.1854818615
 H        -5.9147941647       -0.6513237365       -1.6972676101
 H        -6.5683469509       -0.9474464495       -0.1085297092
 H        -4.4357779834        4.3706141564        0.7060694339
 H        -4.0918451583        2.6507536923        1.1177139472
 H        -6.0551847921        4.1443139671        2.8232523894
 H        -4.3041695090        4.0483240320        3.0621303487
 H        -8.5423659149        1.7029055063        5.9734840891
 H        -8.8176607849        1.0754754419        4.3386336846
 H        -9.6209994248        3.9111385261        5.2639908456
 H       -10.7511163494        2.6046252298        5.2301236010
 H        -9.6091045379        7.5054997553        1.9401731072
 H        -9.5877297530        6.9254609355        3.5353638320
 H       -11.1264622638        7.4063839086        2.8539646914
 H       -11.6665541111        3.2325743306        0.9664271537
 H       -12.2812578743        4.7483597457        0.9344134556
 H       -13.0175407597        3.5872415952        2.0723961611
 H       -12.7191247374        5.5656744340        3.5300017806
 H       -11.3367875565        5.5447240494        4.5761908895
 H       -12.4133187591        4.2227434397        4.5013808819
 H        -5.3339141974       -0.0133509739        4.2540837858
 H        -7.1236000289        0.0661594703        3.9657828243
 H        -6.4703440122        0.1961989609        5.6544942913
 H        -5.1211885620        2.1113480336        6.4989314710
 H        -4.7649993938        3.5045781565        5.3404956321
 H        -3.9858638143        1.9722790532        5.1694822218
 H        -4.4425539192        0.3115318286       -0.0211674442
 H        -3.6357543777        1.7154533643       -0.4469180363
 H        -4.1769656439        0.6072053988       -1.7575131566
 H        -5.0677257171        3.1921094837       -2.5057353633
 H        -6.8172537861        3.4384919291       -2.2440717068
 H        -6.2948843587        1.9806292714       -3.0521419322
 H        -9.5611488107       -2.8947876380       -3.7094897661
 H       -11.1798747645       -2.4581277506       -4.0547482474
 H       -10.4726700298       -2.3136154864       -2.4137298779
 H        -8.6622897200       -1.0901461389       -5.5535261470
 H        -9.3736380300        0.5127234703       -5.5318923865
 H       -10.4018476086       -0.8810994166       -5.9147113259
 H       -11.6219370559        4.0889595762       -5.2578201867
 H       -11.6787288901        5.7722365330       -5.5327275644
 H       -12.6398480385        5.0469363831       -4.2463312519
 H        -8.7537233257        4.4360271383       -4.7275836762
 H        -8.5310124844        6.1628109367       -4.0513868042
 H        -9.5048444670        5.7644150421       -5.5164724297
 H       -13.2896662014       10.7881567944       -0.9558554425
 H       -12.8040898757       10.1373696664        0.5747199839
 H       -14.2410779460       11.1012050810        0.5150828146
 H       -15.2269950057        7.5812692325        1.2074371436
 H       -16.1177952361        9.1113655162        1.4834820947
 H       -14.4806073442        9.0104462907        2.0872156734
 Na       -9.1030404112        3.1693682217        0.2440097977
