117

 C       -16.8165614306        8.5365331944       -1.3443724860
 C       -15.4575647625        9.2089769448       -1.3369531890
 O       -15.0127388282        9.6900453686       -2.3637314104
 C       -14.3950327066        9.0543372184       -0.0927044995
 C       -13.5605907904        7.7965833428       -0.5072524537
 O       -13.6760518652        6.7357032141        0.1696864994
 C       -12.5069569080        7.9213368780       -1.5678328681
 C       -12.1567728878        6.4773258763       -2.0928151963
 C       -10.8805851513        6.5471226676       -2.8870424158
 O       -10.2180821409        7.5707555087       -2.9344587864
 C       -10.5766742425        5.2082524260       -3.6402401473
 C       -10.3501827024        4.0908340798       -2.5952961640
 O        -9.5202412531        4.3193505516       -1.7672453389
 C       -11.1813643193        2.7589662104       -2.6138275876
 C       -10.5894955104        1.7802291508       -3.5833959813
 C       -10.9292608086        0.3238530213       -3.1744073538
 O       -11.9247053294       -0.1330536342       -2.6070398184
 C        -9.7964055062       -0.7718065066       -3.7245095237
 C        -8.4143682605       -0.4920432619       -3.1224563505
 O        -7.5846041387        0.2642452190       -3.6650852988
 C        -8.1610065094       -1.1308265804       -1.7184282813
 C        -6.8068359373       -0.6255532617       -1.1764427677
 C        -7.0253210998        0.8744867400       -0.7466984573
 O        -8.1116830715        1.2652222443       -0.4637921477
 C        -5.8085361003        1.9258172551       -0.9353395473
 C        -5.9160472679        3.0297615583        0.1790276619
 O        -6.9139921528        3.7061333898        0.2393905743
 C        -4.6679574594        3.5508283937        1.0007761309
 C        -5.2336625079        3.5445614811        2.4357766783
 C        -5.7402293906        2.1974747615        2.9055381232
 O        -5.5889871548        1.2896572026        2.0432478685
 C        -6.1124135008        1.9030732770        4.3552284642
 C        -7.4117123922        2.7916755291        4.6112830925
 O        -7.4028825340        4.0371162248        4.5258016408
 C        -8.7199691480        2.1029763512        4.8921839166
 C        -9.8692783258        3.1629849883        4.7608891396
 C       -10.1730663442        3.3996393188        3.2249645650
 O        -9.3829225889        2.8696884988        2.4917595526
 C       -11.1645373071        4.4972805722        2.8046435900
 C       -10.1369416308        5.6734053676        2.1384411080
 O        -9.4529768075        5.3418588536        1.2204662254
 C       -10.2167504438        7.0819265639        2.7274242082
 C       -12.0117530386        3.9691619086        1.6184379028
 C       -11.9488225452        4.9716630738        4.0187782220
 C        -6.3204350818        0.3660544265        4.6836122538
 C        -5.0641693545        2.4572848540        5.3868042341
 C        -4.5280053137        1.1538821193       -0.9266764340
 C        -6.0234315567        2.6800197879       -2.2160625828
 C       -10.3009577083       -2.1634109456       -3.4388425700
 C        -9.6218053517       -0.6714529457       -5.3088124771
 C       -11.6733129073        4.9545203413       -4.6606704871
 C        -9.1576303300        5.2952859606       -4.2845683742
 C       -13.5875735237       10.3453330896       -0.0373234767
 C       -15.1325749071        8.8936526034        1.2581415881
 H       -17.4016914011        9.0402464921       -2.0745236354
 H       -17.3240468594        8.6365494887       -0.3642553203
 H       -16.6937419152        7.4413311710       -1.6933097674
 H       -11.6080017359        8.3921837991       -1.1165519816
 H       -12.8547085802        8.5873920913       -2.3827243083
 H       -12.9722330078        5.9868964913       -2.6922790050
 H       -11.8297333354        5.7688805210       -1.2972935710
 H       -12.2775944424        2.9538310227       -2.7754085539
 H       -11.1113179390        2.2711626759       -1.6426300680
 H        -9.4741232468        1.9186710582       -3.6346071056
 H       -10.9752272703        1.9225033335       -4.5783458377
 H        -8.1707960013       -2.2542876801       -1.6585139109
 H        -8.9677015925       -0.8741733200       -0.9543511862
 H        -6.0476162233       -0.6907568737       -1.9425778854
 H        -6.3795167015       -1.1690236765       -0.2960369420
 H        -4.4388440295        4.5885440385        0.6453883174
 H        -3.8819612171        2.7810447961        0.9032115413
 H        -6.0767159146        4.2823149694        2.4550630031
 H        -4.4856656273        3.8610151394        3.1162416213
 H        -8.6289663493        1.4431235062        5.7548763678
 H        -8.8255092845        1.4066272171        4.0382638703
 H        -9.7173297368        4.1603472449        5.2507323805
 H       -10.7515887363        2.6638472202        5.1881917859
 H        -9.8676299201        7.8343413111        2.0493155721
 H        -9.5032991379        7.1473652627        3.5602165205
 H       -11.1862461198        7.2208700783        3.1430902519
 H       -11.3846140821        3.5293925381        0.8781233157
 H       -12.4116973652        4.8026843359        1.0949158733
 H       -12.7948470723        3.3279468479        1.9831155028
 H       -12.9241153369        5.4251350976        3.7304121925
 H       -11.4491221009        5.6810468777        4.6379865632
 H       -12.2624178953        4.1626101203        4.6698105595
 H        -5.4320667500       -0.1537877816        4.2793387958
 H        -7.2801901419       -0.0793974918        4.2379307837
 H        -6.3564824770        0.2306909399        5.7679892564
 H        -5.2298174728        2.0166316414        6.3263998775
 H        -5.0917436321        3.5383139938        5.4500646532
 H        -3.9790950873        2.2031361858        5.1861137614
 H        -4.4669798758        0.5378017541       -0.0739486246
 H        -3.6177320446        1.8352889577       -0.8075454902
 H        -4.3813414903        0.4543614433       -1.7855493847
 H        -5.2109731431        3.4181791959       -2.4384644987
 H        -6.9641823052        3.1874768681       -2.1956995067
 H        -6.1050950155        1.9244406932       -2.9894200278
 H        -9.5592289084       -2.9818204050       -3.5999724981
 H       -11.0639387036       -2.3954689451       -4.1066387830
 H       -10.6459932968       -2.3328964737       -2.4013206816
 H        -8.7752225514       -1.2564424221       -5.5973889141
 H        -9.5037969154        0.3618361118       -5.6887551778
 H       -10.4997209020       -1.0827243018       -5.8145517226
 H       -11.3319408688        4.2979230174       -5.4950765658
 H       -12.0599327794        5.8253774881       -5.1937454603
 H       -12.5614967463        4.4165698906       -4.2315124647
 H        -8.6950606832        4.3022040807       -4.2489194448
 H        -8.6424766392        6.0036567083       -3.5983728146
 H        -9.1745907523        5.5972306208       -5.3114828072
 H       -13.2408359551       10.6215492324       -1.0412238072
 H       -12.7206685970       10.3369062987        0.6123383929
 H       -14.2449889456       11.1866465824        0.3047175326
 H       -15.3851589851        7.8091476205        1.4600278668
 H       -16.1428324308        9.3384282223        1.1399871466
 H       -14.6479158557        9.3980646455        2.1017698672
 Na       -9.0269856940        3.2163206464        0.3404340190
