117

 C       -16.5876278735        8.4701034238       -1.2468574018
 C       -15.2783629713        9.2497277546       -1.3487803601
 O       -15.0500966214        9.8946825271       -2.3437713880
 C       -14.2274377774        9.2198093748       -0.1709991948
 C       -13.4531357031        7.8432742686       -0.3695936514
 O       -13.5339473862        6.9646042745        0.4185466417
 C       -12.5101096655        7.7201864515       -1.5681793330
 C       -12.3516305470        6.2932693174       -2.1529906149
 C       -11.0632707508        6.2893571480       -3.0738707051
 O       -10.4294309880        7.2792602295       -3.2562103702
 C       -10.5953673537        5.0077355348       -3.8692475008
 C       -10.3853596021        3.8642327317       -2.6464019897
 O        -9.8872607042        4.3345367522       -1.6068279616
 C       -11.0941576437        2.4762100698       -2.7027436180
 C       -10.3673625891        1.4789730793       -3.5556889480
 C       -10.8190827419       -0.0023507495       -3.2312693005
 O       -11.8623210800       -0.1936374667       -2.6867948679
 C        -9.8155850653       -1.1386451559       -3.6952399605
 C        -8.3990227771       -0.9610078575       -3.0945979055
 O        -7.6421063563       -0.3137104386       -3.7570911000
 C        -8.1352113036       -1.2846698704       -1.6393537518
 C        -6.8731505728       -0.6590137929       -1.0514462905
 C        -7.0313545939        0.8095350010       -0.5881471147
 O        -8.0396916625        1.2195557308        0.0166175098
 C        -5.8828029830        1.8549665825       -1.0362381195
 C        -5.6613146834        3.0715186951       -0.0960908408
 O        -6.5175887013        3.9342896876        0.0595390708
 C        -4.4015656246        3.1303344408        0.9370069201
 C        -4.8661139719        3.3040711168        2.3743361280
 C        -5.6963611786        2.0615482396        2.8794682534
 O        -5.9849277369        1.1917206882        2.1378311542
 C        -6.1983324368        2.0218020092        4.4489909610
 C        -7.4886220319        3.0151523030        4.5192752969
 O        -7.3192582648        4.1669002387        4.3112331310
 C        -8.8528574416        2.3600445396        4.9006698572
 C       -10.0005275106        3.3572939033        4.8165984360
 C       -10.2065515366        3.7013892175        3.3161362238
 O        -9.6395952250        3.0088891482        2.5071664713
 C       -11.1544206447        4.9241330574        2.9295212650
 C       -10.2210563431        6.0261906347        2.3880525105
 O        -9.5421523271        5.7938485350        1.3729371796
 C       -10.2039072042        7.4125482278        3.0471387385
 C       -12.0917191311        4.5034763793        1.7681325401
 C       -12.0807333890        5.3156152356        4.1746659814
 C        -6.6192806176        0.5239340190        4.7620789960
 C        -5.1510907369        2.5711980972        5.4609303354
 C        -4.5647914440        1.0701985954       -1.3423024673
 C        -6.3463051420        2.5543756871       -2.3699458207
 C       -10.4842999330       -2.4576931363       -3.2037572618
 C        -9.7012486384       -1.2084241777       -5.2729744622
 C       -11.4915300475        4.6231564265       -5.0075660069
 C        -9.1430397152        5.2252774658       -4.4831507651
 C       -13.2719680650       10.4420666769       -0.3883100208
 C       -14.8234627531        9.2747357163        1.2119271631
 H       -16.7312097631        8.0814600231       -2.3195804644
 H       -17.3723060225        9.2299357962       -1.0483028944
 H       -16.6547760518        7.6556579566       -0.5664820865
 H       -11.6010964920        8.2193945041       -1.2611015894
 H       -12.8889346793        8.4272980257       -2.3956531636
 H       -13.2154496665        6.0839399868       -2.7422228589
 H       -12.1874625626        5.5995505161       -1.2695381958
 H       -12.1035693077        2.5811143151       -3.1738024666
 H       -11.2572705303        2.1182779996       -1.6661766250
 H        -9.2677970595        1.5973530573       -3.4585375880
 H       -10.4825593744        1.6460288853       -4.6038807425
 H        -8.0865664725       -2.3825423335       -1.4354032743
 H        -9.0360877482       -1.0258484163       -0.9707801644
 H        -6.0875363979       -0.6718003790       -1.8773715922
 H        -6.5291129000       -1.2095968429       -0.2210382197
 H        -3.8415478308        4.0841531163        0.6612263430
 H        -3.7271083713        2.2392211679        0.8838535223
 H        -5.5826563177        4.1126031598        2.5198857218
 H        -3.9960406440        3.6132197077        2.9591576953
 H        -8.7211304669        2.0534519051        5.9544990341
 H        -8.9847930975        1.4521331034        4.3597524865
 H        -9.6384513707        4.2481319855        5.4018214194
 H       -10.9071763127        2.8733650594        5.2328289042
 H        -9.2773742358        7.9073508120        2.8127073119
 H       -10.3795139641        7.4880775433        4.0644094592
 H       -11.1004829322        7.8797477769        2.6285992619
 H       -11.5147461513        3.9096772719        1.0304431445
 H       -12.4745109502        5.3963060658        1.3338843527
 H       -12.8796560372        3.8967026932        2.0755109370
 H       -12.9112565766        5.9370389273        3.9737877871
 H       -11.5766174735        5.8764892788        4.9830272039
 H       -12.4289977569        4.4158190237        4.5882218316
 H        -5.8196298693       -0.2625540946        4.6010985404
 H        -7.4841688824        0.2561350942        4.1643529052
 H        -6.9260063640        0.4172801803        5.8588471932
 H        -5.5460234181        2.3990534092        6.4920455213
 H        -5.0255087762        3.6724484054        5.3491050862
 H        -4.1764210353        2.1116990234        5.4363463302
 H        -4.2401504976        0.1519455611       -0.7355870913
 H        -3.8317363180        1.8459675422       -1.5108299487
 H        -4.5483512660        0.6106324720       -2.3107952693
 H        -5.5657333087        3.0298354367       -2.9230159560
 H        -7.0239353537        3.3642009572       -2.0321414087
 H        -6.8061500750        1.8217069206       -3.0265415706
 H        -9.8823483121       -3.2671363525       -3.5665260448
 H       -11.5523006362       -2.5668480532       -3.5853692353
 H       -10.5414919065       -2.6240836929       -2.1434334981
 H        -9.5068779192       -2.2535726305       -5.4948632503
 H        -8.9799682151       -0.4989482294       -5.6451577082
 H       -10.6376168796       -0.9310161563       -5.7656003590
 H       -11.7602633893        3.5536316756       -5.0918417358
 H       -11.1349243983        4.9005597042       -5.9991707611
 H       -12.5034887014        5.0238447720       -5.0464708968
 H        -8.8940570516        4.3080038692       -4.9741115342
 H        -8.3928162528        5.2971789448       -3.6922633316
 H        -9.1827546311        6.1684010843       -5.0922912200
 H       -12.9436958014       10.4375146413       -1.4261505533
 H       -12.3701237335       10.4273103513        0.2928720102
 H       -13.7619867448       11.3704119153       -0.2547248978
 H       -15.6624152048        8.6317913630        1.2535033366
 H       -15.2535815260       10.2849159250        1.3915788255
 H       -13.9761035060        9.0087855767        1.8835549095
 Na       -8.8724004441        3.7126829258        0.4851399787
