117

 C       -12.8932803639        5.8848194728       -8.0617261189
 C       -12.0375926034        6.6310127067       -7.1021928565
 O       -11.3450375158        6.0555544505       -6.2787265141
 C       -12.0238689838        8.2040595546       -7.0971164070
 C       -11.4344143581        8.5207487475       -5.6603884082
 O       -12.1395311856        8.6609600252       -4.7144209896
 C        -9.8829529182        8.5253158395       -5.5974034575
 C        -9.3890528726        8.7914158912       -4.1001182313
 C        -8.0898871712        7.9427505173       -3.8256845720
 O        -7.1247751355        7.7889770449       -4.5227241823
 C        -8.0763316612        7.2757081578       -2.3801599727
 C        -9.3674573849        6.3677385168       -2.2568502920
 O       -10.3190756862        6.5933007828       -1.5366095575
 C        -9.4549120693        5.1014834612       -3.2171077763
 C       -10.7658163956        4.2644869710       -3.0237131842
 C       -10.8388628700        3.3732706316       -1.8196185112
 O        -9.8934747909        2.8889592159       -1.1982183480
 C       -12.3321235139        2.8422422952       -1.4798968235
 C       -12.4394120228        3.0335988555        0.1137526306
 O       -11.8495019300        2.2264424772        0.8171020378
 C       -13.0348517471        4.3185274413        0.7102603297
 C       -12.6744179287        4.2445612219        2.1816753036
 C       -11.2189447234        4.6238674131        2.3828187824
 O       -10.3897117597        4.6806215843        1.5310442780
 C       -10.8222735626        4.7607528207        3.9557155694
 C       -10.0508379266        3.3857674700        4.1588216031
 O        -9.2881510592        2.8114432682        3.3912783847
 C       -10.2566580172        2.7901321221        5.5408926144
 C        -9.1070312056        1.8393754054        5.8465614753
 C        -9.5569687331        0.3423069815        5.6254605430
 O       -10.7016946200        0.0726480050        5.4605365476
 C        -8.4871302706       -0.7965168854        5.8485287420
 C        -7.9899444269       -1.0396578296        4.4216901443
 O        -7.1541027651       -0.3158859869        3.9277327872
 C        -8.5152988632       -2.1990366529        3.6797114796
 C        -8.1122683364       -2.0990185325        2.1934171608
 C        -8.0995926686       -0.7051704099        1.5643629894
 O        -9.1620878025       -0.1300717513        1.4258888200
 C        -6.7011779884       -0.1349485800        1.0180980082
 C        -6.4359103282        1.3635780324        1.5889775332
 O        -7.0732576217        2.2870690382        1.1311321536
 C        -5.3564100635        1.5754047819        2.7109920787
 C        -5.5042949383       -1.0125202617        1.4104531642
 C        -6.8447141425       -0.0027703046       -0.4947512478
 C        -7.3289348530       -0.3673059993        6.7492086510
 C        -9.3528865152       -1.8968298471        6.6030794082
 C        -9.8268002798        5.8748477273        4.1386429448
 C       -12.0289622199        4.9919588770        4.9800602585
 C       -13.4354667717        3.6416375040       -2.3082407988
 C       -12.5090933143        1.3923490342       -2.0371486948
 C        -6.7124231132        6.5671561212       -2.1678434922
 C        -8.1863865043        8.4678841702       -1.3759326481
 C       -11.1285137679        8.7325813500       -8.2930913552
 C       -13.3784291519        8.8159421734       -7.2496011032
 H       -13.8208338807        5.4596408338       -7.5866732533
 H       -12.4943905665        5.0120276449       -8.5975800813
 H       -13.3520957837        6.5654174737       -8.7570892138
 H        -9.5154071023        9.3944676895       -6.1805219901
 H        -9.5996349857        7.5464687936       -5.8536938178
 H       -10.0941926039        8.6018032096       -3.3126829850
 H        -9.0818232981        9.8357047096       -4.0975766196
 H        -8.5595761704        4.5465279321       -2.9895501217
 H        -9.2364891314        5.4657931512       -4.1628245894
 H       -10.9108386987        3.6172397983       -3.8591091101
 H       -11.5752617351        4.9739590582       -2.9755406927
 H       -14.0890936764        4.5123878497        0.6737160337
 H       -12.5805681829        5.2181349219        0.3255633954
 H       -12.6735288806        3.1977068446        2.6210773560
 H       -13.3408938721        4.9417414011        2.5947506299
 H       -11.1123037529        2.1790777027        5.6480948328
 H       -10.1544674797        3.5732783499        6.2624239845
 H        -8.9556318800        1.8170697251        6.9130593107
 H        -8.1101792598        1.9456422567        5.4375690542
 H        -9.5799886006       -2.3663798148        3.9297502336
 H        -8.0348983652       -3.0950581023        4.1872170074
 H        -8.6206949473       -2.7816774053        1.5731020976
 H        -7.1451534710       -2.5304496885        2.1392935813
 H        -5.5284161657        0.8810776605        3.4973402331
 H        -5.3587552671        2.6432869288        3.1490493395
 H        -4.4170036713        1.3365811362        2.3257613991
 H        -5.4669972263       -1.9474810134        0.7631623773
 H        -5.4758573479       -1.2876126274        2.4286945314
 H        -4.5989979144       -0.5354211522        1.0974879633
 H        -6.8018359389       -0.9685981200       -0.9327240225
 H        -5.9482057379        0.4899947007       -0.9681323544
 H        -7.7076114826        0.5916289675       -0.7565242941
 H        -7.5979612304       -0.2671155356        7.8138715494
 H        -6.7317342518        0.4386073157        6.4300396568
 H        -6.6981806522       -1.2853796874        6.6181447836
 H        -9.5913041501       -1.5040227756        7.5770380872
 H        -8.7971044436       -2.7768486906        6.7265045663
 H       -10.2821618250       -2.0435031481        6.0982409607
 H       -10.3515127072        6.8143705160        4.2520862471
 H        -9.1257713022        5.8861150030        3.3196498585
 H        -9.1826549466        5.7174880267        5.0158682956
 H       -12.2094233181        6.0220527614        5.1915737317
 H       -11.7833141871        4.4322185371        5.9169649042
 H       -13.0280053712        4.6402800364        4.6483208789
 H       -14.4498912365        3.2194478788       -2.1469214785
 H       -13.2409864131        3.5974247680       -3.4299852011
 H       -13.4685939337        4.6573516506       -2.0690137978
 H       -12.5374167889        0.6125100517       -1.2594145485
 H       -11.5939161919        1.3044085963       -2.6439960740
 H       -13.3498300041        1.3383882659       -2.7162789804
 H        -5.8827422606        7.2684262030       -2.3540940430
 H        -6.5580323950        5.6795051177       -2.7536916000
 H        -6.6865633467        6.2296356615       -1.1313969538
 H        -7.3923264992        9.1319097362       -1.6585784220
 H        -8.1188422805        8.0797966353       -0.3934149630
 H        -9.2158229414        8.8746237137       -1.3424021832
 H       -10.1183022317        8.3967169663       -8.1331124126
 H       -11.2361421856        9.8130396103       -8.2708767346
 H       -11.4865503817        8.2705262689       -9.2356068972
 H       -13.3829637549        9.7837104377       -6.7477620901
 H       -14.1543686353        8.1962371515       -6.7900686505
 H       -13.7973757018        9.0771586521       -8.2644170019
 Na       -9.3449668184        2.2873317277        1.0161231247
