117

 C       -16.4830508424        8.4437872729       -1.0807373764
 C       -15.2128325737        9.3498319930       -1.4029070245
 O       -15.0754465625        9.8808614144       -2.4600937502
 C       -14.0800750602        9.3158149539       -0.2670651953
 C       -13.3976051178        7.8991766901       -0.5977952813
 O       -13.4311130814        6.9796859242        0.1765328338
 C       -12.5530438117        7.8278772194       -1.9032914734
 C       -12.0874455146        6.3348000902       -2.1203181332
 C       -10.9851460100        6.3136994578       -3.1507827293
 O       -10.5545394341        7.3407098429       -3.5713194925
 C       -10.7095234329        4.8635381333       -3.8015806214
 C       -10.5105081232        3.8880840485       -2.6741445059
 O        -9.8377459926        4.2692487383       -1.7111665318
 C       -11.1564444227        2.5065289047       -2.7249156990
 C       -10.2963430712        1.4144551564       -3.4905649060
 C       -10.8164417356       -0.0206099158       -3.1317863048
 O       -11.8408550355       -0.2783147436       -2.5868533832
 C        -9.8191344853       -1.2333956765       -3.5380099952
 C        -8.3364110411       -0.9448678360       -2.9074894919
 O        -7.4067139669       -0.7697627170       -3.6242424861
 C        -8.3090480770       -0.9820424866       -1.3579894562
 C        -7.0267065857       -0.4614128788       -0.6415720698
 C        -7.1317036598        1.0250554789       -0.6255329386
 O        -8.2559586710        1.4980198126       -0.4284241914
 C        -5.9060830197        1.9721570135       -1.0830960641
 C        -5.7202548507        2.9600937391        0.0395740759
 O        -6.4535240120        3.8997047766        0.3541669831
 C        -4.5304770492        2.7512604822        0.9190452727
 C        -4.8827818716        3.0640823513        2.3828384979
 C        -5.7612746658        1.8799308065        2.9123759291
 O        -6.2973729717        1.0507292814        2.2167369668
 C        -6.2087355261        1.9932676447        4.4789809580
 C        -7.4274687556        3.0464458683        4.5492152952
 O        -7.2685849953        4.0485509944        3.9603912029
 C        -8.8654450758        2.6215578325        5.0141051621
 C        -9.9041407316        3.6696228833        4.8360070237
 C       -10.2482120674        3.8095602209        3.3507183535
 O        -9.8018445536        3.0741108580        2.4656977213
 C       -11.2023589107        4.9458020458        2.9753934416
 C       -10.1679010501        5.9712742242        2.3235012729
 O        -9.2259674385        5.7188062724        1.5319166322
 C       -10.2081555979        7.3543723104        2.9856153008
 C       -12.1538141706        4.5589446121        1.8541033581
 C       -11.9910659214        5.5789299318        4.1426944303
 C        -6.5435162599        0.5490807525        4.9910888173
 C        -5.0869135587        2.6027847381        5.3455499467
 C        -4.6380604768        1.2438568040       -1.4959317438
 C        -6.4551822800        2.6701020414       -2.3861918153
 C       -10.3945531300       -2.5507344096       -3.0230700324
 C        -9.7307519578       -1.3173062853       -5.1445461630
 C       -11.8862040807        4.4765408562       -4.6611785201
 C        -9.2821518861        4.9099247980       -4.4462525176
 C       -12.9811519898       10.4188612033       -0.4775761815
 C       -14.6511201541        9.3420242034        1.1283385905
 H       -17.1796597373        8.3248735604       -1.9221968072
 H       -16.9174116039        8.9574027066       -0.2605082236
 H       -16.1887887758        7.4957853514       -0.7140240680
 H       -11.7815729727        8.5368550999       -1.8940782115
 H       -13.2573482396        8.1629670680       -2.6739483538
 H       -12.9365348110        5.7050195237       -2.4257094142
 H       -11.6625620619        5.9519223610       -1.1837261858
 H       -12.1163895592        2.5086303565       -3.2826924693
 H       -11.4060912867        2.2197461844       -1.7206741730
 H        -9.1545829836        1.5406465607       -3.2988274307
 H       -10.3564980136        1.4826700498       -4.5661271790
 H        -8.3401036973       -2.0041632119       -1.0607656765
 H        -9.1812813180       -0.5071428589       -0.9157935672
 H        -6.1401266019       -0.8989121671       -1.1705957718
 H        -7.0835813392       -0.7343678260        0.4205480836
 H        -3.8109945259        3.4655703843        0.5522616959
 H        -4.1457899118        1.7853990102        0.7414836782
 H        -5.5550266498        3.9782636753        2.4122572690
 H        -4.0743060423        3.3126800220        3.0262363272
 H        -8.8063665878        2.3175361483        6.0979527171
 H        -9.1771139401        1.6892568951        4.5089956348
 H        -9.5301963785        4.6144780060        5.1881650362
 H       -10.7256059154        3.3421647682        5.3701535198
 H        -9.3939836236        7.9481340054        2.5364201145
 H        -9.9803397722        7.2062177196        4.0439874477
 H       -11.2027934597        7.8820092114        3.0314531375
 H       -11.5933499728        3.8947478133        1.0748696403
 H       -12.6289858241        5.4741319799        1.5329966344
 H       -12.9558075609        3.9072250915        2.1749455699
 H       -12.5401376620        6.4930674555        3.7892043302
 H       -11.3567967256        5.9173430980        5.0072286733
 H       -12.7395663788        4.9560563530        4.5687451681
 H        -5.6495824801        0.0119997536        5.2044616710
 H        -7.0040461733       -0.0087104975        4.2322157619
 H        -7.1194900668        0.5251441649        5.8815117660
 H        -5.3134784455        2.5947166066        6.3681624835
 H        -4.8771081879        3.6653981229        5.1639775139
 H        -4.1831278831        2.0114367431        5.0807401417
 H        -4.3154569305        0.4155884831       -0.8162958499
 H        -3.7976693739        1.9177976705       -1.7007927278
 H        -4.8117135359        0.7841150534       -2.4193665161
 H        -5.8435171553        3.5661708663       -2.6575628794
 H        -7.4594052060        3.0224263803       -2.1295853541
 H        -6.4322839823        2.0035599116       -3.2272241253
 H        -9.6723405396       -3.3645918431       -2.9378473145
 H       -11.1840999405       -2.8623857779       -3.6968186752
 H       -10.9265710465       -2.4347735377       -2.0920094207
 H        -8.7984969984       -1.7876735952       -5.3770623655
 H        -9.7385807081       -0.3241425958       -5.6491974652
 H       -10.5485801814       -1.9545043276       -5.5308152612
 H       -11.6312104887        3.6749209498       -5.3781051574
 H       -12.0600632382        5.2172795229       -5.3532705942
 H       -12.8304401137        4.1844735348       -4.3318112080
 H        -8.9890715561        3.9969030091       -4.8689294873
 H        -8.6239168536        5.1168863967       -3.5819562511
 H        -9.2335052282        5.8335467395       -5.0163754143
 H       -12.7146446638       10.5225721806       -1.5104720941
 H       -12.0922262974       10.1858989197        0.1369410507
 H       -13.3307036174       11.3775833088       -0.1410603869
 H       -14.8708498278        8.3898141508        1.5431725098
 H       -15.5285147556       10.0010860162        1.0095925123
 H       -13.9060681419        9.8386641933        1.7528788651
 Na       -8.7927272270        3.6943181741        0.1844317865
