117

 C       -16.4736735630        8.5968653891       -0.9679661252
 C       -15.2039889376        9.3607227741       -1.3756193326
 O       -15.0326751235        9.8910649970       -2.4327798478
 C       -13.9980776547        9.4149994585       -0.3597473633
 C       -13.3512655708        7.9986737591       -0.6660504795
 O       -13.5170651180        7.0756313983        0.1394470737
 C       -12.5700926148        7.8026482445       -2.0272674620
 C       -11.8511508358        6.4507077699       -2.1229357546
 C       -10.9782266536        6.1835189235       -3.3670645339
 O       -10.4873158973        7.1434178279       -3.9112114422
 C       -10.7387416803        4.6921974210       -3.9304895403
 C       -10.5472500440        3.7073339975       -2.6273468951
 O        -9.8445484852        4.1631805135       -1.7442137893
 C       -11.0725277952        2.3307005991       -2.4504911618
 C       -10.2390216219        1.4420026935       -3.2414208043
 C       -10.7056889464       -0.0196039199       -3.0125032886
 O       -11.7767328767       -0.2457622915       -2.4718870623
 C        -9.7629947090       -1.2343697606       -3.4776541821
 C        -8.4524863355       -1.1184426095       -2.6947631974
 O        -7.4325616616       -0.8299665784       -3.3172791297
 C        -8.4575360692       -1.2270496750       -1.1453294722
 C        -7.2533267506       -0.3082760844       -0.6617431389
 C        -7.3137491915        1.2447462665       -0.7891441047
 O        -8.3753660261        1.7708784888       -0.5509540408
 C        -5.9836334217        2.0628096666       -1.2439103280
 C        -5.7211781890        2.9187706279        0.0650339407
 O        -6.5463667870        3.7727009069        0.3197507177
 C        -4.5001677965        2.7315141652        0.9419922979
 C        -4.6615077031        2.8013340319        2.4599289915
 C        -5.7315734018        1.7827924133        3.0471762442
 O        -6.2974875780        0.9670945547        2.2940914670
 C        -6.2372391509        1.9396610128        4.5102947685
 C        -7.4348694800        2.9540836016        4.4253053797
 O        -7.2545180899        4.1199140580        3.9821281828
 C        -8.7566777717        2.5577229170        5.0937719362
 C        -9.9003645181        3.5868434802        4.8054099736
 C       -10.1448564945        3.7974297694        3.3699486991
 O        -9.7470703153        2.9688528369        2.5490445185
 C       -11.0675657448        5.0074581847        2.9489464903
 C       -10.1151441031        6.0981527422        2.2429255462
 O        -9.3355617248        5.7306017904        1.3925075061
 C        -9.9494494972        7.5361685149        2.6892612229
 C       -11.9965493422        4.6296054590        1.6881300078
 C       -11.9722997362        5.6123793261        4.0522181276
 C        -6.5937158686        0.6174918595        5.1297567156
 C        -5.1071531868        2.5715542967        5.3472959872
 C        -4.8171209598        1.1522685976       -1.6915423750
 C        -6.4051423717        3.0880892078       -2.3236212269
 C       -10.4619336690       -2.5163361563       -2.9684785794
 C        -9.4597142926       -1.3031125715       -5.0267158876
 C       -11.9792281849        4.4614576521       -4.8372100250
 C        -9.4659637609        4.7518263394       -4.7882686814
 C       -13.1345208008       10.6798647513       -0.6361865104
 C       -14.4864583044        9.3787722068        1.1697119077
 H       -17.2216570045        8.7697074506       -1.6890985653
 H       -16.7729534715        8.7778995796        0.0774083321
 H       -16.1488485158        7.5162440153       -1.0462462894
 H       -11.7614239830        8.6166886455       -2.0410190742
 H       -13.2819294778        8.0276249552       -2.8358625316
 H       -12.5993767970        5.6401209050       -2.2178042365
 H       -11.2930181966        6.2426951700       -1.1883303767
 H       -12.1222605958        2.2402413735       -2.7462789716
 H       -11.0220499647        2.0866188085       -1.3441188392
 H        -9.2271139127        1.6031778322       -2.9834391647
 H       -10.3026905553        1.6936352261       -4.3444659098
 H        -8.2417814650       -2.2638631350       -0.7107935800
 H        -9.3986982350       -0.8290447893       -0.6912169362
 H        -6.4010288089       -0.6517411843       -1.1817622248
 H        -7.1767946329       -0.4561593545        0.4407803220
 H        -3.6722742046        3.4233501426        0.6150459218
 H        -4.0830874753        1.7029324122        0.6650776809
 H        -4.9224587553        3.7765147869        2.8161381722
 H        -3.6624588056        2.5987542699        2.9495342973
 H        -8.5306016425        2.4962040436        6.1497457862
 H        -9.0484121099        1.5364175427        4.7979895191
 H        -9.6368781217        4.5663922823        5.2418602005
 H       -10.8865953611        3.2110414463        5.2662325822
 H        -9.4961957745        8.1172367206        1.9218118169
 H        -9.3602549081        7.4866733390        3.6048882946
 H       -10.8483624978        7.9603450044        3.0096297337
 H       -11.4608689110        4.6783650016        0.8168477895
 H       -12.8394891137        5.3036580976        1.7291130466
 H       -12.4157440022        3.6149087379        1.7221919711
 H       -12.7413951917        6.1963303618        3.6037859656
 H       -11.4761777608        6.1229493051        4.8168384323
 H       -12.5474195400        4.8179883735        4.5702508551
 H        -5.7131287910       -0.0351258481        5.1750700566
 H        -7.2658431348        0.0168012428        4.4497324471
 H        -7.0126072563        0.6955584055        6.1368806712
 H        -5.4200418788        2.7131089452        6.4081092233
 H        -4.9592773606        3.6014050098        5.0408747281
 H        -4.1824981082        2.0266122963        5.2178700699
 H        -4.5203962414        0.4774798378       -0.9044547792
 H        -3.8816746869        1.7443374651       -1.8647253251
 H        -5.0286510475        0.5725732627       -2.6691684342
 H        -5.5261825680        3.6275956279       -2.6627887898
 H        -7.2227257879        3.7297538260       -2.0337959639
 H        -6.7119191824        2.4264181066       -3.1603273401
 H        -9.8904890387       -3.4226065612       -3.2120719040
 H       -11.4307894780       -2.6700596135       -3.3743599558
 H       -10.6157370994       -2.4245796449       -1.8780583996
 H        -8.5761177935       -1.9280358361       -5.3045633936
 H        -9.1908925030       -0.3172967494       -5.4092166981
 H       -10.3800411876       -1.6796488767       -5.4534431941
 H       -11.9350862393        3.7956603677       -5.6685602445
 H       -12.4181053042        5.3272410882       -5.3699338731
 H       -12.7924983253        4.0548216626       -4.2086748881
 H        -9.3889204996        3.6926881774       -5.1951365507
 H        -8.5876499848        5.0107027533       -4.2097301435
 H        -9.6449691034        5.5078439618       -5.5407962447
 H       -13.0254672007       10.8457867408       -1.7109649945
 H       -12.1710543990       10.6109398334       -0.2013120224
 H       -13.6644784576       11.5397081210       -0.1805310845
 H       -14.8455345993        8.3310526939        1.2976747800
 H       -15.1544138375       10.1977129750        1.3793893424
 H       -13.6757385655        9.3916111493        1.8712814118
 Na       -9.0996949117        3.6974804322        0.5361035484
