117

 C       -16.4799754634        8.6895043755       -0.9557535865
 C       -15.2809233715        9.4236184011       -1.3658851983
 O       -15.0835367143        9.8927290222       -2.4318920736
 C       -13.9856988968        9.3777509647       -0.3927695445
 C       -13.2478242974        8.0516183866       -0.6819393882
 O       -13.4415143426        7.0714581551        0.0408160141
 C       -12.4654925692        7.7628419760       -1.9882891187
 C       -11.8060222306        6.4374443572       -2.0952328693
 C       -10.9692138574        6.2273187762       -3.4795825815
 O       -10.4341863777        7.1268674020       -4.0649445643
 C       -10.8649780551        4.6891521130       -3.9079275626
 C       -10.5922530454        3.8552190028       -2.6696866653
 O        -9.8497128033        4.3358338200       -1.8463528226
 C       -11.0570367271        2.3788504223       -2.4985761923
 C       -10.1714603765        1.2997281980       -3.2507380983
 C       -10.6894918248       -0.1198277811       -3.0208042721
 O       -11.7120981553       -0.2746288742       -2.4395427168
 C        -9.8068881847       -1.2902987369       -3.4003550791
 C        -8.4324374929       -1.0187909293       -2.5842050698
 O        -7.3978095463       -0.8542193184       -3.1443895561
 C        -8.3951541850       -1.0466050919       -1.0374489971
 C        -7.1889437979       -0.2835459985       -0.6111524638
 C        -7.3974362219        1.2273308241       -0.8508133680
 O        -8.4588842256        1.7867363344       -0.6796740318
 C        -6.1264540510        2.0301263907       -1.1818839600
 C        -5.8288756148        2.8614656079        0.1396009930
 O        -6.6350832171        3.7435976673        0.4840802802
 C        -4.5185865795        2.5880940276        0.8760999442
 C        -4.6593788717        2.6968837939        2.3901952592
 C        -5.7600646954        1.7897735861        2.9827286688
 O        -6.2284102182        0.8868931297        2.3078856466
 C        -6.2290165413        1.9739396490        4.5056379611
 C        -7.3949212818        3.0293132035        4.5434881328
 O        -7.2502476478        4.0827599152        4.0065296184
 C        -8.8200813659        2.6166107122        5.0634619967
 C        -9.9613333310        3.6302471117        4.8600715290
 C       -10.1525194623        3.8395106626        3.3736657495
 O        -9.8182139996        2.9830928444        2.5307871284
 C       -10.9627393939        5.0898617160        2.8485796824
 C        -9.9622719548        6.1187799066        2.2434581874
 O        -9.3298528112        5.8103554189        1.2097662669
 C        -9.9770021889        7.5897199647        2.7186673901
 C       -11.8496905557        4.5404483293        1.7023266461
 C       -11.8203051937        5.5673803692        4.0179440968
 C        -6.5837589264        0.5654890587        5.0854717695
 C        -5.1191200030        2.6461604168        5.4089720871
 C        -4.9749310728        1.1990543175       -1.7277505343
 C        -6.3874710794        3.1132876731       -2.2325852566
 C       -10.5111795953       -2.6248880637       -3.0354133622
 C        -9.5133715206       -1.2650665607       -4.8971465024
 C       -12.1141446525        4.2942553190       -4.6783314305
 C        -9.5003630792        4.6602105625       -4.7879684628
 C       -13.1934291500       10.6518208264       -0.6930449035
 C       -14.3764046242        9.4377635424        1.1118572220
 H       -17.2381975948        8.9589233065       -1.6897977901
 H       -16.7549211079        8.9571227968        0.0680021705
 H       -16.2833741581        7.5762744484       -1.0007084701
 H       -11.6274515481        8.5269632673       -2.1344255994
 H       -13.1861227246        7.8985696664       -2.7847521299
 H       -12.5498296388        5.5869157214       -2.0450823507
 H       -11.1221124180        6.2426854525       -1.3114381796
 H       -12.0860036504        2.2468964141       -2.7903421401
 H       -11.0266180995        2.2456897795       -1.4320433235
 H        -9.1482718247        1.3652893712       -2.9376899943
 H       -10.1836109517        1.5144598975       -4.3096370107
 H        -8.2468419287       -2.1065422140       -0.7374991629
 H        -9.2375303587       -0.6343780448       -0.4948209723
 H        -6.3719748156       -0.6137272773       -1.1797367081
 H        -7.0698640054       -0.4275350651        0.4792566568
 H        -3.7905573829        3.3703567547        0.5271952603
 H        -4.0222772925        1.6421733524        0.5331546184
 H        -4.9776847647        3.7405366595        2.6946708732
 H        -3.7239417231        2.5608142275        2.9469617995
 H        -8.7538302298        2.3889362580        6.0924121526
 H        -9.0978063843        1.6847914947        4.5725529421
 H        -9.7272681221        4.5922370848        5.4058469782
 H       -10.9105655505        3.1638097892        5.2789915554
 H        -9.6720634801        8.2247709151        1.8994112661
 H        -9.3144787004        7.7025885364        3.5806524353
 H       -10.9302300092        7.9674334252        3.0715470425
 H       -11.2058755459        4.3345282254        0.8140431328
 H       -12.7025800195        5.1003313935        1.4987256221
 H       -12.1922915150        3.5846003128        2.0534162479
 H       -12.5777543509        6.3325932297        3.7692044823
 H       -11.1975512884        5.8331673515        4.8387493701
 H       -12.4228646501        4.7596320717        4.3884613017
 H        -5.8208104138       -0.2327532039        4.9331935638
 H        -7.4860856629        0.1102336267        4.5762553959
 H        -6.7927438039        0.6627860762        6.1668049766
 H        -5.5460650459        2.7702001288        6.3462824814
 H        -4.8916031131        3.6651255395        5.0908831603
 H        -4.1701346784        2.0340638587        5.4547730764
 H        -4.4147757254        0.6092909130       -1.0302671295
 H        -4.1684368224        1.8085367999       -2.2028803565
 H        -5.4095164233        0.5968335588       -2.5182606793
 H        -5.3464528835        3.4677842125       -2.4337938479
 H        -7.0170715454        3.9033423059       -1.8630471578
 H        -6.8011243021        2.7132521297       -3.1469283482
 H        -9.9924966377       -3.4650284410       -3.5740161501
 H       -11.4925226017       -2.6708814731       -3.3846548724
 H       -10.5393714294       -2.7967656279       -1.9301747836
 H        -8.8653168922       -2.0296674873       -5.2236830942
 H        -8.8953386634       -0.3724581926       -5.0524482479
 H       -10.4645588991       -1.2605762788       -5.4393654092
 H       -12.0358294214        3.2556658478       -5.1735900275
 H       -12.3687685966        4.8431390540       -5.5480388173
 H       -13.0394803659        4.2096334398       -4.0689951837
 H        -9.3087756675        3.6244569336       -5.0911571816
 H        -8.7306421643        4.9814733382       -4.0401332094
 H        -9.5437385174        5.3846331438       -5.5839928281
 H       -13.1085645135       10.6566203307       -1.7798549754
 H       -12.1913133803       10.6670330250       -0.2991681086
 H       -13.7672773118       11.5601588468       -0.3682416419
 H       -14.9803700585        8.5492968061        1.3435009965
 H       -14.7228585286       10.4584247233        1.3376205278
 H       -13.5268179069        9.2350220123        1.7633181043
 Na       -9.0941349689        3.6444365689        0.5587312932
