117

 C       -16.5918426541        8.8596429309       -0.7975224871
 C       -15.2662667786        9.4282977551       -1.3842388035
 O       -15.2331689327        9.8721812914       -2.5178199700
 C       -13.9339328701        9.3509943548       -0.5548558702
 C       -13.1818823285        8.0835949565       -0.8122960444
 O       -13.1844753754        7.1266549252       -0.0746893215
 C       -12.3350030313        8.0334137002       -2.0510142018
 C       -11.7595226765        6.5517304961       -2.1722582665
 C       -11.0262569812        6.2495372709       -3.5093494383
 O       -10.5985452730        7.0907856641       -4.2621524399
 C       -10.8549035765        4.6299364837       -3.8841744636
 C       -10.5153456372        3.8352109584       -2.5946914772
 O        -9.8369561188        4.3783852577       -1.7041470507
 C       -10.9237259300        2.3259498450       -2.2961144418
 C       -10.2691245712        1.2806716062       -3.2322613168
 C       -10.6705798754       -0.1292147736       -2.8373901106
 O       -11.7572500405       -0.2785425247       -2.3079136442
 C        -9.7511384913       -1.2815559450       -3.2922297094
 C        -8.4597220216       -1.0737312126       -2.4601154410
 O        -7.3857391636       -0.8866037939       -3.0314576587
 C        -8.5394647466       -1.1271821031       -0.9348930235
 C        -7.3807688756       -0.2498364760       -0.3169445637
 C        -7.4765607164        1.2129989271       -0.8253087032
 O        -8.6241509904        1.6509994111       -0.9474104097
 C        -6.2591542680        2.1692361102       -1.1209432543
 C        -5.8761221428        2.7918416033        0.2826512727
 O        -6.7482967821        3.3567482473        0.8785349187
 C        -4.5338222168        2.4590336709        0.9834753754
 C        -4.7021019843        2.8261149846        2.4333428244
 C        -5.7069920730        1.7658604203        3.0698530585
 O        -6.1520644554        0.8211600658        2.4117937736
 C        -6.2515625841        1.9597586924        4.5462926803
 C        -7.4201972252        2.9367290216        4.5098099459
 O        -7.3060141599        4.1428882739        4.1217867997
 C        -8.7234352294        2.5419986667        5.0560603994
 C        -9.7369871550        3.6730205032        4.7834210642
 C       -10.0189687252        3.7869946795        3.2787278168
 O        -9.6172168533        2.9133721952        2.5294775945
 C       -10.8531745461        5.1014252326        2.7721535881
 C        -9.9722288546        6.2330523499        2.0929530253
 O        -9.2905419905        5.9619500845        1.1242661490
 C        -9.8836400143        7.5403628724        2.7191438656
 C       -11.8872287681        4.5684093299        1.6800221708
 C       -11.7213511892        5.8102982317        3.8780989541
 C        -6.6170332233        0.5771780353        5.0670658519
 C        -5.1512856753        2.5924071100        5.3362142241
 C        -5.0816589191        1.3815474330       -1.7621031087
 C        -6.7488017349        3.2629997885       -2.1129691601
 C       -10.4010093639       -2.7118632460       -2.9472768303
 C        -9.4658370909       -1.1368679981       -4.7917633652
 C       -12.1797092991        4.1761624400       -4.5637832104
 C        -9.7875809572        4.4620347294       -5.0027778293
 C       -12.9952391898       10.4864752203       -0.9501741946
 C       -14.2515421885        9.4293807319        0.9832464165
 H       -17.3347646623        8.8225579236       -1.5674000539
 H       -16.9548046940        9.4397553224        0.0621830877
 H       -16.3769835752        7.8636878995       -0.4631512161
 H       -11.5556909690        8.7109580555       -1.8954894101
 H       -12.9003459598        8.3026080197       -2.9462633679
 H       -12.4902519465        5.8116252015       -2.0231144660
 H       -10.9564411992        6.2109491641       -1.4485397201
 H       -12.0015391420        2.2969089549       -2.4910606335
 H       -10.7495597146        2.1427711862       -1.2291321907
 H        -9.1711631390        1.3465471177       -3.3779144678
 H       -10.8083913474        1.4339367879       -4.1960427435
 H        -8.4970233075       -2.1662677068       -0.6447389927
 H        -9.4760372413       -0.6555697760       -0.5985676870
 H        -6.3888547323       -0.7325468758       -0.4927725787
 H        -7.5757541792       -0.0950826782        0.7497904338
 H        -3.6852821052        2.8428169292        0.4531599696
 H        -4.3384252672        1.4095978431        0.8994422580
 H        -5.1511010299        3.7643269236        2.6681563113
 H        -3.7530809114        2.8517346775        3.0169369775
 H        -8.6771563999        2.2270409295        6.1503827280
 H        -8.9803633432        1.6658239088        4.4214633304
 H        -9.3610744819        4.5902818240        5.1307621230
 H       -10.6318772048        3.4914130796        5.3195902257
 H        -9.3428489337        8.2554297235        2.0616999018
 H        -9.4456295369        7.4397515113        3.7390615347
 H       -10.8867191787        7.9829857513        2.8355566652
 H       -11.3928296975        3.8938069304        1.0318839961
 H       -12.2076611096        5.4834480409        1.0561223702
 H       -12.8610192924        4.1823771930        2.1344327693
 H       -12.3938641098        6.4383251649        3.3210125703
 H       -11.1709836791        6.3707599927        4.6646507039
 H       -12.4070678297        5.0974420799        4.4251299544
 H        -5.7615536692       -0.0488166521        5.0182953941
 H        -7.3683494747        0.0903505737        4.4979069507
 H        -6.9346716296        0.6192349616        6.0905996448
 H        -5.4637427098        2.7512880970        6.4339633734
 H        -4.9524602444        3.5481995596        4.8542259536
 H        -4.2933942335        1.9954997539        5.3459742691
 H        -4.7381641912        0.6441917511       -1.0733848316
 H        -4.2523772145        2.0172468824       -1.8031557150
 H        -5.3278285867        0.9718070574       -2.7500364144
 H        -6.0071288787        4.0170014625       -2.1924524389
 H        -7.7116439409        3.6367240156       -1.7680440906
 H        -6.9346036414        2.7742781666       -3.0876954433
 H        -9.9079947738       -3.5097132769       -3.4530480256
 H       -11.4476695836       -2.7938035853       -3.3352355020
 H       -10.4270197155       -2.8528042674       -1.8820023404
 H        -9.1803297676       -2.1306777285       -5.1957307312
 H        -8.5497899880       -0.6208852565       -4.9114646506
 H       -10.3055258701       -0.7389014658       -5.3008430803
 H       -12.3026636616        3.1614493812       -4.7322619413
 H       -12.4902514593        4.6419484658       -5.5281322585
 H       -12.9828344111        4.4001483536       -3.8832383882
 H        -9.8734985702        3.4193588813       -5.3155480282
 H        -8.8492961810        4.7667951894       -4.6670759813
 H       -10.1312736149        5.0647433695       -5.8505076772
 H       -12.6311215092       10.3922769515       -1.9806775980
 H       -12.0941475893       10.3962293511       -0.3175161039
 H       -13.4552418391       11.4417555135       -0.8077585350
 H       -14.8260647848        8.5540908667        1.2245404351
 H       -14.5811229005       10.4111586275        1.2075365077
 H       -13.3503219893        9.2975650879        1.5911101749
 Na       -8.9109451038        3.6845572623        0.1562935168
