117

 C       -16.4583920772        9.0280190598       -0.6526275956
 C       -15.1742262416        9.4230927323       -1.4438887480
 O       -15.1771530813        9.6528489608       -2.6621782590
 C       -13.8187177730        9.5136945240       -0.6095817644
 C       -13.0564630824        8.1423556461       -0.9386229743
 O       -13.1055363747        7.2663957616       -0.1296589477
 C       -12.3183196986        7.9656360725       -2.2801068909
 C       -11.7652830476        6.6013309063       -2.4004428314
 C       -11.1376794374        6.0991128422       -3.6957273585
 O       -10.7569841021        6.9388187373       -4.4703376717
 C       -11.1373518393        4.5909430919       -3.9978003791
 C       -10.7757699902        3.8179425534       -2.7127405110
 O        -9.8503474210        4.2732668686       -2.0029214185
 C       -11.3649041468        2.4172013935       -2.4277251204
 C       -10.5569109977        1.3006636290       -3.3237735312
 C       -10.7729005679       -0.0910533005       -2.7476714054
 O       -11.6878561170       -0.2938365567       -1.9639850992
 C        -9.7549235859       -1.2523817231       -3.1036422562
 C        -8.4254317786       -1.0646167315       -2.3909390509
 O        -7.3642636933       -0.7679287673       -2.9664394560
 C        -8.4270123895       -1.2064677538       -0.8695042259
 C        -7.2603921547       -0.3130518378       -0.2621619062
 C        -7.5242893999        1.1836856273       -0.6697642423
 O        -8.7139992942        1.4922394473       -0.8114594028
 C        -6.3273429948        2.1204134574       -1.0093561013
 C        -5.9797932405        2.7135847060        0.4344056932
 O        -6.9147982510        3.1630225695        1.0516158415
 C        -4.5770386338        2.5332297814        1.0715387867
 C        -4.7133575649        2.6354444464        2.5852628577
 C        -5.6735628285        1.6587629427        3.2440822200
 O        -6.0591183197        0.7008732058        2.5949433065
 C        -6.0869908370        1.8728012653        4.6921942364
 C        -7.2660339185        3.0345629496        4.4842423650
 O        -6.9706425480        4.2040567729        4.1596955729
 C        -8.6714810406        2.5332679434        4.8634594864
 C        -9.7995200530        3.5708310006        4.6522767531
 C        -9.9792853539        3.9558988583        3.1218949598
 O        -9.3952898607        3.2665376056        2.3339620295
 C       -10.8806221735        5.1926716271        2.6450685622
 C        -9.8197490212        6.2309698804        2.0361196027
 O        -9.2709544290        5.8788128375        1.0182965352
 C        -9.5413756776        7.6120162600        2.6316815592
 C       -11.9862076203        4.7223157930        1.5339550770
 C       -11.7286635504        5.7991114303        3.7830863086
 C        -6.6014172168        0.5347209986        5.2862598162
 C        -5.0173226659        2.5049582325        5.5900076769
 C        -5.1748236401        1.2586384783       -1.6009423276
 C        -6.6049544596        3.3403427206       -1.9565832646
 C       -10.4170941129       -2.6379128149       -2.8497418363
 C        -9.4158832868       -1.1315379311       -4.5969966715
 C       -12.5005634519        4.1470898435       -4.5133089315
 C       -10.0669139864        4.2005521195       -4.9882030451
 C       -13.0634881492       10.7799658591       -1.1899341765
 C       -13.9568300904        9.6029324683        0.9192224179
 H       -17.2073466266        8.7557972839       -1.4382547978
 H       -16.8341788281        9.9661094447       -0.1717338664
 H       -16.3421343580        8.2590499459        0.0933587384
 H       -11.5188054112        8.6614013344       -2.4029972618
 H       -13.1528618281        8.1643424175       -3.0145032281
 H       -12.4616000549        5.8083119095       -2.0946078807
 H       -10.9927564783        6.4801251652       -1.6238770268
 H       -12.4255058481        2.3767003703       -2.6445435200
 H       -11.1344265484        2.1978230941       -1.4290623128
 H        -9.4482760531        1.4425795449       -3.3578396493
 H       -10.9975763785        1.2737590854       -4.2615055225
 H        -8.2984181936       -2.2292829569       -0.5907031278
 H        -9.4112201808       -0.8428298640       -0.5548748269
 H        -6.2692279827       -0.7251927008       -0.6111625074
 H        -7.3154285745       -0.4021602862        0.7880001313
 H        -3.8734915739        3.3491483587        0.7883200089
 H        -4.0880622667        1.6559348550        0.6250448207
 H        -4.9042064509        3.7160351402        2.8694098036
 H        -3.7969870897        2.3939471415        3.1353695185
 H        -8.6312524476        2.2459934959        5.9055741985
 H        -8.8757700244        1.7004158408        4.2348373925
 H        -9.5958848476        4.5118431092        5.2797097344
 H       -10.7520026135        3.2036294960        5.0966436386
 H        -8.5397998287        8.0020034197        2.4772436633
 H        -9.6918019075        7.5437741182        3.6759912182
 H       -10.2075507428        8.3550922628        2.1969933835
 H       -11.5208097006        4.3004998324        0.6833907870
 H       -12.6091833237        5.5094760795        1.1150342174
 H       -12.5731011470        4.0655695562        2.1246247296
 H       -12.1202384788        6.7102061602        3.3964986048
 H       -11.1383343325        6.1137325642        4.6739923062
 H       -12.5060078037        5.1195697837        4.0514551108
 H        -5.6887887151       -0.0528075577        5.5773175609
 H        -7.2383310815       -0.0194733183        4.6032265877
 H        -7.2203801272        0.6722588865        6.2332642093
 H        -5.2945160770        2.3842898051        6.6560801603
 H        -4.8135210978        3.5098290527        5.2406769303
 H        -4.1339546722        1.9298317555        5.5263257267
 H        -4.9292263836        0.3609887023       -0.9394941561
 H        -4.2665723842        1.8014176029       -1.8511758679
 H        -5.6312291016        0.8735103189       -2.5173741779
 H        -5.6391828644        3.8023239391       -2.0573480134
 H        -7.2794490525        4.0051856316       -1.3943467109
 H        -7.0455643150        3.0761786427       -2.9299465545
 H        -9.7355444914       -3.4684195372       -2.8093195410
 H       -11.0946281095       -2.8217403237       -3.7741423419
 H       -11.0101629878       -2.6040975453       -1.9491282080
 H        -8.6193190726       -1.8709983340       -4.7974260592
 H        -9.0310551759       -0.1443083962       -4.8845561708
 H       -10.3065521573       -1.4076948121       -5.1770658959
 H       -12.4869372074        3.1412590239       -4.9490875284
 H       -12.8405094960        4.8862117550       -5.3152753591
 H       -13.3604078450        4.1573565044       -3.8090500527
 H       -10.2480301917        3.2344726673       -5.4143638442
 H        -9.1267770651        4.3504913131       -4.4789103446
 H       -10.1984128583        4.9229221815       -5.8481061942
 H       -13.3070997095       10.9391126127       -2.2364475861
 H       -11.9515401468       10.7593357290       -1.0391281919
 H       -13.4528856231       11.6031461136       -0.6622874847
 H       -14.2036118198        8.6414353578        1.3354879271
 H       -14.6954407396       10.3981909433        1.1520627864
 H       -12.9961241690       10.0540103352        1.2826148107
 Na       -9.0178478359        3.7233951069        0.1374569550
