117

 C       -12.8769587663        5.8635085831       -8.2773486560
 C       -12.0915814610        6.5906314351       -7.1503131919
 O       -11.4409793323        5.9651078665       -6.3854493351
 C       -12.0945912697        8.1538054437       -7.0555539224
 C       -11.4239409006        8.4506118021       -5.6848845953
 O       -12.1694139507        8.4964739992       -4.7114910237
 C        -9.8549138965        8.4429038203       -5.6297348166
 C        -9.2884312778        8.7462087021       -4.2571037458
 C        -8.1009628702        7.7897129870       -3.8543328778
 O        -7.1881886547        7.6217922085       -4.6312937590
 C        -8.2085705042        7.1921548245       -2.3910036951
 C        -9.4168723441        6.3159003316       -2.2960377867
 O       -10.4095569228        6.5705861647       -1.5367023144
 C        -9.4681024022        5.0746179933       -3.2914235797
 C       -10.7297376101        4.2607122289       -3.0834314100
 C       -10.8249085318        3.3872297612       -1.8352764240
 O        -9.8508164693        3.0730098909       -1.2373077574
 C       -12.2930153643        2.9556487907       -1.5035802625
 C       -12.3954866436        3.0779765906        0.0620685655
 O       -11.8959814926        2.2061034272        0.7260419856
 C       -13.1008439772        4.3080348003        0.6914943378
 C       -12.7498213026        4.5347128718        2.2514650985
 C       -11.2347574566        4.7739400265        2.5267398562
 O       -10.4439147370        4.8522487799        1.6285329674
 C       -10.7904414958        4.8188149402        3.9759742207
 C       -10.0430839067        3.4032517528        4.1844322524
 O        -9.3888627470        2.8619818583        3.2798033797
 C       -10.1473613061        2.8057771387        5.5961607544
 C        -9.0251560071        1.8366909240        5.9775576423
 C        -9.4186146924        0.3824975964        5.8052555279
 O       -10.5686407264        0.0647858365        5.4454282094
 C        -8.3857695069       -0.7482066100        5.9861345527
 C        -7.9747563503       -1.1799792180        4.5680962944
 O        -7.2385144141       -0.3587674802        3.9561006525
 C        -8.6101912257       -2.2842725700        3.6384037439
 C        -7.9492582198       -2.2119520409        2.2794025859
 C        -8.0181707117       -0.6998193557        1.6450433810
 O        -9.0243892083       -0.0890107564        1.4782168158
 C        -6.6629529479       -0.1223887344        0.9948719510
 C        -6.4761632050        1.3076184902        1.6036376284
 O        -6.9457349359        2.3367069196        1.1381642753
 C        -5.4153204010        1.6026450182        2.7250973161
 C        -5.4340844816       -0.9858401758        1.2558904225
 C        -6.8606514654        0.0386942770       -0.5131684128
 C        -7.2457600668       -0.1425211835        6.8517954499
 C        -9.2194532460       -1.9373462080        6.6795222162
 C        -9.8381049146        6.0541525109        4.1276793251
 C       -11.9346487635        4.9926231737        4.9659273710
 C       -13.4928576358        3.5870068579       -2.2695947854
 C       -12.3047500340        1.4334249962       -1.9151741800
 C        -6.9742986356        6.3117015036       -2.1350892542
 C        -8.2363266038        8.3652247960       -1.3791462916
 C       -11.2272065029        8.7836374249       -8.2832997849
 C       -13.5242961934        8.7911544185       -7.2043226437
 H       -13.7231767168        5.1969058903       -7.8900909610
 H       -12.2080688027        5.0434779886       -8.7393905596
 H       -13.3502379423        6.3777973261       -9.0499559808
 H        -9.6043641825        9.2686673343       -6.2062587563
 H        -9.5603964870        7.3920983354       -5.9630778419
 H       -10.0268489924        8.5255676107       -3.5387296235
 H        -9.0638156494        9.8643512346       -4.2654449726
 H        -8.5728650423        4.5043689505       -3.2985365746
 H        -9.4222984724        5.5622257979       -4.2481466514
 H       -10.7034275314        3.5505392443       -3.9820195143
 H       -11.5873067890        4.9579932454       -3.2233658795
 H       -14.2326402913        4.1645903574        0.6167494483
 H       -12.9178134875        5.2725337780        0.1765011364
 H       -12.9083912366        3.6034974136        2.8080465378
 H       -13.3511720022        5.4172345041        2.4952285985
 H       -11.0354426712        2.1317958851        5.5819668750
 H       -10.1126426226        3.6084411832        6.3462844854
 H        -8.6066575401        1.9132094216        7.0219961621
 H        -8.1223493567        1.8081975585        5.3110551781
 H        -9.7132158227       -2.1825767515        3.5369217267
 H        -8.4747903720       -3.2536714628        4.1038684943
 H        -8.5626496029       -2.8095302212        1.5610708516
 H        -7.0300373111       -2.7324625150        2.2491824324
 H        -5.4204865109        0.8401370564        3.5365958855
 H        -5.6917163834        2.5189048043        3.1694457673
 H        -4.3816530568        1.6961418204        2.3183258749
 H        -5.4400167924       -1.6414764353        0.4379144868
 H        -5.4308706579       -1.6238025139        2.2065885157
 H        -4.5127791374       -0.4912385741        1.1591972678
 H        -6.9263976698       -1.0182289506       -0.9294880505
 H        -5.9752383463        0.4168583980       -1.0707752235
 H        -7.7102131059        0.6550521364       -0.7224562849
 H        -7.6800116185        0.2197513384        7.7760626308
 H        -6.7255212655        0.6826749005        6.3510580952
 H        -6.3936004161       -0.8938959917        7.0423419603
 H        -9.7355559118       -1.5841620721        7.5410139912
 H        -8.5212496652       -2.6547731998        6.9958000681
 H        -9.9395572356       -2.3516911938        6.0467196041
 H       -10.4534749777        6.9584224761        3.9370207815
 H        -9.0681016371        5.9508470989        3.3815465943
 H        -9.3838539900        6.1940871358        5.0604581877
 H       -12.0666505575        6.0493109244        5.0332179849
 H       -11.7743973905        4.5063925579        5.9624808381
 H       -13.0112705397        4.7038060339        4.6737301714
 H       -14.3631448592        3.0472575631       -1.9906113663
 H       -13.3938705899        3.4708742357       -3.3747319025
 H       -13.7119449259        4.6221832728       -2.0372261504
 H       -11.7755476608        0.9298035154       -1.0858791313
 H       -11.7352690916        1.3966819947       -2.8741261327
 H       -13.2966235515        0.9904446014       -2.0650710027
 H        -6.0884786310        6.9236428753       -2.2596334173
 H        -6.8729890395        5.5638933353       -2.9401990323
 H        -6.9624010407        5.7700207555       -1.1877798066
 H        -7.4926281922        9.0473286690       -1.7128544309
 H        -8.0686358454        7.9456926025       -0.4060821576
 H        -9.2310209075        8.7198680203       -1.2443833835
 H       -10.2007254751        8.5107232165       -8.1012695030
 H       -11.4178652584        9.8912982526       -8.3057292261
 H       -11.5041416096        8.3284319878       -9.1659214184
 H       -13.5169363082        9.8552333535       -7.2650996888
 H       -14.2690336920        8.4619861144       -6.4409385613
 H       -14.0151660165        8.5226454980       -8.1965198593
 Na       -9.3786657521        2.3647673223        1.0425357635
