117

 C       -16.1833760991        9.8655144791       -0.4541500357
 C       -15.0155968463        9.6273629222       -1.5030507976
 O       -15.2670933791        8.9606829557       -2.4984524909
 C       -13.5310990276       10.1855523837       -1.2621629343
 C       -12.7306290569        8.8329283061       -1.3002037026
 O       -12.1879623710        8.4657166766       -0.3023860527
 C       -12.5508725314        8.0113178150       -2.5997322485
 C       -12.1466282472        6.5849471016       -2.4291790549
 C       -11.7275540691        5.9440673600       -3.7805387436
 O       -11.1923085678        6.6327076196       -4.6075848104
 C       -11.8500467933        4.3799140145       -4.0178596579
 C       -11.0936993485        3.6782418343       -2.8021125908
 O       -10.2948207979        4.2714685219       -2.1132309473
 C       -11.6006235383        2.2682625097       -2.4522211200
 C       -11.0076345905        1.0335497824       -3.1461857215
 C       -11.1025900213       -0.2925663130       -2.4168013946
 O       -11.8960888882       -0.5252848417       -1.5111045461
 C       -10.0238106442       -1.4447075747       -2.7876419568
 C        -8.6804685578       -0.9325014196       -2.2214161303
 O        -8.0004439173       -0.1117415298       -2.8422839458
 C        -8.1552513542       -1.6075822782       -0.8356443501
 C        -6.8249257577       -0.8007636946       -0.5547383909
 C        -7.0360479943        0.7336401615       -0.5073647906
 O        -8.1145346536        1.2059023559       -0.2510853794
 C        -5.8325565694        1.6587237777       -0.8589232678
 C        -5.7165372333        2.6040791733        0.3714304350
 O        -6.6521219230        3.3850585301        0.6417277830
 C        -4.6367032031        2.5568085681        1.3917221085
 C        -5.1966208502        2.9869170170        2.8318938990
 C        -5.6444920082        1.6969479622        3.6740837235
 O        -5.7646402131        0.5757397831        3.1751234679
 C        -6.2230800824        1.8825307361        5.1678118515
 C        -7.3735492906        2.9696573768        5.1529193041
 O        -7.2022478115        4.0850339601        5.6823905780
 C        -8.8088539325        2.6230259654        4.6977681195
 C        -9.6922775444        3.8016374911        4.2368532080
 C        -9.8816143467        4.0937628066        2.7542562173
 O        -9.4932654758        3.2427156460        1.9681072937
 C       -10.5672611132        5.3280070856        2.3135103302
 C        -9.4838265168        6.1901122027        1.5692558683
 O        -8.9697810920        5.7196109555        0.5570147571
 C        -9.0439608669        7.5984434748        1.9798584664
 C       -11.7287716547        5.0913631722        1.2736004488
 C       -11.1173142581        6.1449280616        3.5155078525
 C        -6.6084065923        0.4948446025        5.7101627145
 C        -5.0531800017        2.5271562545        6.0298111420
 C        -4.4901873119        0.9393508262       -1.0912151143
 C        -6.2497138797        2.4162219283       -2.1855020253
 C       -10.4370446806       -2.7815943624       -2.1359750473
 C        -9.8750586094       -1.6261746049       -4.2772275084
 C       -13.3059426847        4.0039902325       -4.2883977877
 C       -10.9756725958        3.9331597177       -5.2628940984
 C       -13.2019229547       11.1063970619       -2.4706282446
 C       -13.3097757246       10.9668999058        0.0284504054
 H       -17.1872587946        9.5729375764       -0.8844654957
 H       -16.2995910185       10.9136819356       -0.2182113538
 H       -16.0001663406        9.2902830966        0.4313775897
 H       -11.7105833591        8.6178132078       -3.0281573668
 H       -13.3428017287        8.1117787229       -3.3184614939
 H       -13.0348696756        6.0381817308       -2.0179703411
 H       -11.2238601273        6.4927308211       -1.8499436089
 H       -12.6828365910        2.2554673742       -2.5212249796
 H       -11.4910876317        2.2337725566       -1.3852123864
 H        -9.9628054529        1.0781443882       -3.2445029949
 H       -11.4081165482        0.9469006150       -4.1928101665
 H        -8.0582351218       -2.6881745981       -0.8704474104
 H        -8.8647992602       -1.3984578186       -0.0936405066
 H        -6.0888247148       -0.9539802914       -1.3287726894
 H        -6.2548683542       -1.2066629325        0.3027929520
 H        -3.8964567766        3.3257036660        1.1521753314
 H        -4.1548359330        1.5763058394        1.4994530403
 H        -6.1005028299        3.6158155509        2.7774169050
 H        -4.3081401092        3.3670732307        3.3790998550
 H        -9.2975483301        2.1568014133        5.5286971490
 H        -8.8112832991        1.8646997899        3.9279425306
 H        -9.5053622252        4.7536193634        4.8097811441
 H       -10.7582781111        3.5581394300        4.5649821435
 H        -9.7568423074        8.1817565841        2.5334665708
 H        -8.8870652280        8.1102715506        1.0934688310
 H        -8.1052470944        7.6480198597        2.5131692792
 H       -11.2927648032        4.8269229231        0.3175508573
 H       -12.3974070007        5.9167527152        1.3242548749
 H       -12.2524608662        4.2061436754        1.4248785918
 H       -11.7132484239        6.9923537680        3.1581641044
 H       -10.2501030462        6.3927742467        4.1248964039
 H       -11.7700840418        5.5483250583        4.0794506601
 H        -5.7403972009       -0.1722358677        5.7406997097
 H        -7.3203395061        0.0019976354        5.0955582739
 H        -6.9970776843        0.6071709985        6.7399077614
 H        -5.4829792191        2.7614465295        6.9795733181
 H        -4.6855773833        3.4689756944        5.5952987756
 H        -4.2547453560        1.7555194319        6.0884034566
 H        -4.3792195322       -0.0245815284       -0.4581730986
 H        -3.6712761419        1.5848229071       -0.6838089251
 H        -4.4077066474        0.6831734460       -2.1266241323
 H        -5.4407735533        3.1694281383       -2.2925085999
 H        -7.1977845569        2.9790480211       -2.0115035779
 H        -6.3064900821        1.7607847367       -3.0287162656
 H        -9.8614357721       -3.6459532348       -2.4207095257
 H       -11.5424328039       -2.9959052590       -2.4719401808
 H       -10.4515026984       -2.6360646958       -1.0876384561
 H        -9.2033564190       -2.4383934717       -4.4695729223
 H        -9.3338747120       -0.7726710883       -4.7592290913
 H       -10.8583281542       -1.8049445306       -4.7767930884
 H       -14.0628682605        4.5835712081       -3.6842894982
 H       -13.4661850588        2.9212067843       -4.2014725868
 H       -13.3851260512        4.3851342038       -5.3051320458
 H       -11.0788634694        2.8788292735       -5.4240188585
 H        -9.8977530385        4.1616549223       -5.1120211106
 H       -11.2530074680        4.5968440946       -6.0938173894
 H       -13.0444802869       10.5170584315       -3.3436265735
 H       -12.2750382604       11.5946092196       -2.2493098199
 H       -13.9320120108       11.8915944037       -2.5865101238
 H       -13.4190446046       10.3784659174        0.9232608303
 H       -14.0114461463       11.8380350624       -0.0192438843
 H       -12.2755456003       11.3250595975        0.0215217677
 Na       -9.1509128717        3.3739611217       -0.1782381878
