117

 C       -15.9788870938       10.1538926917       -0.3979044151
 C       -15.0304353747        9.6690896862       -1.4661275708
 O       -15.4080570779        9.0190579715       -2.4260357828
 C       -13.4770265635       10.2025422912       -1.4536270795
 C       -12.6469576268        8.9314254672       -1.4078112186
 O       -12.0173373335        8.5517704422       -0.3898838816
 C       -12.4924281538        8.1907881986       -2.7106806665
 C       -12.1274290362        6.6690606729       -2.4829332132
 C       -11.5996808091        5.9960438562       -3.7602568004
 O       -11.1874714992        6.5952878823       -4.7170812070
 C       -11.7652773473        4.3238869608       -3.8580250119
 C       -11.1298459649        3.5086490871       -2.6286145384
 O       -10.2947361700        4.1123337717       -1.9572977182
 C       -11.5401132721        2.1292480603       -2.1427766629
 C       -11.0016711364        0.9501247244       -2.9518374783
 C       -11.2048135453       -0.4335592633       -2.3169781372
 O       -12.1453634951       -0.6036688754       -1.5681803531
 C       -10.1043653036       -1.5276921771       -2.6504126084
 C        -8.5951304251       -1.1125230313       -2.2208700704
 O        -8.1570502324       -0.1848825161       -2.8805722818
 C        -8.0238840878       -1.5588724249       -0.8324601508
 C        -6.7536908609       -0.8285610869       -0.5606288687
 C        -7.0068252769        0.6473563164       -0.6514666004
 O        -8.1072236818        1.1361443481       -0.3436356635
 C        -5.7927570140        1.6515958037       -0.8567517027
 C        -5.9701471611        2.6182875419        0.4118465117
 O        -6.7726614169        3.4836589347        0.5694293565
 C        -4.8819887194        2.6063705889        1.4465867634
 C        -5.1574426485        3.0245444938        2.8968251490
 C        -5.7657104003        1.7964430021        3.6595122719
 O        -5.7997068094        0.7491401725        3.1220170421
 C        -6.2130644012        1.9424568704        5.1645900205
 C        -7.5053334347        2.9459610522        5.2819236675
 O        -7.4565055649        3.9921318830        5.7939691112
 C        -8.8427400017        2.5378980593        4.6234955736
 C        -9.6678158614        3.7909320893        4.3277990106
 C        -9.8597727607        4.0049240411        2.8667974644
 O        -9.5749978247        3.1400784991        2.0799801130
 C       -10.4243172426        5.3535437754        2.2968780257
 C        -9.3113667485        6.1559307723        1.3385776384
 O        -8.9226416172        5.7198191424        0.3022387827
 C        -8.9775318595        7.6221674651        1.6258226029
 C       -11.4892616141        4.9675378725        1.3292137887
 C       -11.0300516111        6.2480796538        3.3898299458
 C        -6.6569237343        0.5695510785        5.7119212386
 C        -5.0503439855        2.6282030142        5.9786951728
 C        -4.4241529107        0.9285782959       -0.9065440862
 C        -5.9826330739        2.5217839560       -2.1101233414
 C       -10.5182452584       -2.8996841919       -2.0504294381
 C       -10.1311255536       -1.5746752942       -4.2470038161
 C       -13.3103738072        4.0647089778       -3.8757073693
 C       -11.0539908835        3.9915619725       -5.1728584933
 C       -13.4094450174       10.9982977296       -2.7644524746
 C       -13.2543280915       11.0274437124       -0.1844061906
 H       -16.9604506959       10.1788018542       -0.8156665325
 H       -15.8162636374       11.1777024112       -0.0279465677
 H       -15.9939914639        9.4336035637        0.4672279998
 H       -11.6922865004        8.6403985837       -3.2556795919
 H       -13.4015728115        8.4434840903       -3.2681567372
 H       -12.9457217570        6.0771876852       -2.1290887594
 H       -11.2474772906        6.6060705579       -1.8266203712
 H       -12.6067380925        2.0221341767       -1.9149818551
 H       -11.2417188851        2.1000350348       -1.0680889375
 H        -9.9027988385        0.9607231234       -3.2141570956
 H       -11.4842348148        0.9153307987       -3.9033620286
 H        -7.8211196858       -2.6293320905       -0.8180134184
 H        -8.8812769909       -1.4532296616       -0.1072239529
 H        -5.9583909612       -1.1862119087       -1.2434474356
 H        -6.3622428535       -1.1399607644        0.4142364884
 H        -4.0745191931        3.2504005094        1.1145333124
 H        -4.5187446370        1.6014521606        1.5751194012
 H        -5.8241813470        3.8654975407        2.9879020212
 H        -4.1691603377        3.1707589487        3.3021367449
 H        -9.4599949437        1.9806438744        5.3905962743
 H        -8.7409746640        1.7890176805        3.8019931834
 H        -9.1239548569        4.6167094643        4.7115818361
 H       -10.5989891527        3.7545715533        4.8165146528
 H        -9.8460641467        8.1621445917        2.0200762575
 H        -8.5461954257        8.2291398546        0.7705354821
 H        -8.2532528053        7.6735878087        2.4570239996
 H       -11.0399069173        4.4192677589        0.4813139139
 H       -12.1069078135        5.8441824875        1.1441273489
 H       -12.2179226634        4.2040920513        1.7143100297
 H       -11.2977149401        7.1794411809        2.9052644482
 H       -10.3920594874        6.4130382255        4.2267170213
 H       -11.9881667965        5.7727020102        3.7538200645
 H        -5.8736912440       -0.2124581531        5.6979772386
 H        -7.4596973191        0.1923941192        4.9776857377
 H        -7.0970061630        0.6428025572        6.7149494869
 H        -5.2752301478        2.5644550695        7.0450794486
 H        -5.0671274146        3.6517546684        5.6590419088
 H        -4.0961186407        2.1416801493        5.7839038929
 H        -4.0573951481        0.7464489791        0.0271884510
 H        -3.6876093158        1.6429673702       -1.2245606822
 H        -4.3863256961        0.0337342201       -1.5512725055
 H        -5.0607232448        3.0463629924       -2.3272825482
 H        -6.8119355404        3.1957115021       -1.9992159272
 H        -6.2589678743        1.7961378924       -2.9074994896
 H        -9.7735302480       -3.6437915291       -2.3972149789
 H       -11.3868355592       -3.2612181269       -2.4632081552
 H       -10.5854623024       -2.8701186988       -0.9331083970
 H        -9.5739149166       -2.3940242712       -4.7288191062
 H        -9.6399995767       -0.7480843996       -4.7009533812
 H       -11.1551314617       -1.6225790791       -4.5007825271
 H       -13.6054016919        3.5898004960       -2.9492226963
 H       -13.5392910818        3.3874421789       -4.6881827107
 H       -13.8206171431        5.0298689854       -3.9480882326
 H       -11.1002342796        2.8837425285       -5.3921253219
 H       -10.0469198859        4.3664764962       -5.2506827568
 H       -11.6160112717        4.5647700379       -5.8842717158
 H       -13.7710098348       10.5087622206       -3.6766467777
 H       -12.4018095619       11.3711550128       -2.9317650146
 H       -14.0049078021       11.8717912131       -2.4737002917
 H       -13.3387207915       10.2931568278        0.6711805945
 H       -13.9259856734       11.8803882723       -0.1520313203
 H       -12.2368442852       11.4818062473       -0.1413466574
 Na       -8.9193188053        3.3619294908       -0.3448066129
