117

 C       -15.8273624310       10.3509381598       -0.2685964722
 C       -15.0079191642        9.8467272504       -1.4606883695
 O       -15.4998140015        8.9853100391       -2.1621229430
 C       -13.5188091266       10.2663216339       -1.6977539196
 C       -12.5909550662        8.9753851878       -1.5947078275
 O       -11.9334482119        8.7282977674       -0.5776422328
 C       -12.5314414430        7.9784955971       -2.7983147132
 C       -11.9194444495        6.6111625032       -2.4309198915
 C       -11.6116720497        5.7219748778       -3.6564676202
 O       -11.0296691138        6.2264994577       -4.5812165748
 C       -11.9613877735        4.2081529599       -3.5866145630
 C       -11.2424401801        3.5810203263       -2.4415167255
 O       -10.0993769782        3.9937164410       -2.0989411630
 C       -11.5610664428        2.1590506977       -1.8433850984
 C       -10.7865742830        1.0560556569       -2.6751462343
 C       -11.1819188399       -0.3592182957       -2.2136535731
 O       -12.1948704102       -0.4735803938       -1.5638147730
 C       -10.2642976503       -1.5708333431       -2.6456436691
 C        -8.7802513620       -1.1846915470       -2.3637300876
 O        -8.2164984347       -0.4188257101       -3.1299363659
 C        -8.1087666741       -1.4765905396       -1.0184339527
 C        -6.8545399454       -0.7809740435       -0.6572683635
 C        -7.0416948245        0.7042289801       -0.6004821216
 O        -8.1610184820        1.1817521743       -0.6366852286
 C        -5.8056120429        1.6785393510       -0.6252446568
 C        -5.7214630271        2.6830886082        0.6329374661
 O        -6.4989950872        3.6050318303        0.6008566056
 C        -4.6224456592        2.7696153261        1.6845926024
 C        -5.3162484879        3.1797168509        3.0094115861
 C        -5.9298136277        1.8682720588        3.6703165920
 O        -6.2332067726        0.9578410932        2.9701937509
 C        -6.3036020324        2.0554754161        5.2417051404
 C        -7.5365940384        3.0745846155        5.3063803365
 O        -7.4651688214        4.0894284287        5.9064088138
 C        -8.7965773082        2.6109528363        4.5504090875
 C        -9.7542145586        3.7416123139        4.2050370102
 C        -9.7584442189        4.0047848910        2.6059867463
 O        -9.3402714754        3.1818756418        1.8568800903
 C       -10.4082373404        5.3733391833        2.1069155752
 C        -9.1812323151        6.0652522559        1.1991853120
 O        -8.7175795488        5.4947454198        0.2474811280
 C        -8.9109475483        7.5190090873        1.2882546023
 C       -11.7177343674        5.1138956671        1.2742192107
 C       -10.8993245537        6.2054354458        3.2557039034
 C        -6.7043153205        0.6358106842        5.8400492020
 C        -5.0688537099        2.5744675241        6.0074931646
 C        -4.4750905442        0.8910749039       -0.7859899207
 C        -6.0058318991        2.4983686953       -1.9374865587
 C       -10.7348322256       -2.8412243931       -1.8479981143
 C       -10.3269194645       -1.8497650782       -4.2581545474
 C       -13.5885116300        4.1054278515       -3.4802517366
 C       -11.3098416098        3.5274237480       -4.8495750882
 C       -13.3413807560       11.0233880438       -3.0563991128
 C       -13.0053401886       11.2853077312       -0.6252862457
 H       -16.7545875635        9.8465144525       -0.1974320938
 H       -16.0070507335       11.4490142473       -0.4382271736
 H       -15.2793500043       10.3476351255        0.6861194963
 H       -12.0433385003        8.4330620591       -3.6705528239
 H       -13.6030244301        7.8689021196       -3.0463588577
 H       -12.7044935015        6.1109632609       -1.7338351922
 H       -10.9681312656        6.5952390059       -1.9336366269
 H       -12.6085879877        1.9466781834       -1.7131289157
 H       -11.3161268908        2.1513572827       -0.8102651701
 H        -9.6640838342        1.1325751167       -2.7105338594
 H       -11.0089315210        1.0072256190       -3.6810512748
 H        -7.9270940920       -2.5127631567       -1.0152933960
 H        -8.8457383216       -1.3262880191       -0.2526719768
 H        -6.0648409566       -1.0876419857       -1.4138505148
 H        -6.5210626530       -1.1629026506        0.2811649687
 H        -4.0032351346        3.5967005993        1.3040114883
 H        -4.0480736080        1.8634269977        1.8102554782
 H        -6.2474146577        3.7978238618        2.6978239409
 H        -4.7088667119        3.7170140575        3.7088427619
 H        -9.2694413750        1.9427321189        5.2607050970
 H        -8.6195402942        1.9547146677        3.7207162873
 H        -9.3730272589        4.6729108810        4.7352722868
 H       -10.8109004654        3.4945120843        4.4297658721
 H        -9.6437776846        8.0169039481        0.6977122582
 H        -7.9782771553        7.6404792267        0.7404844795
 H        -8.8716784354        8.0257004526        2.1863980330
 H       -11.7657807603        4.1444290724        0.8701512280
 H       -11.8575894035        5.8345177819        0.4736326596
 H       -12.6016631523        5.3461287828        1.8653536378
 H       -11.2298340989        7.1381720813        2.8681331474
 H       -10.0713114923        6.4534431246        3.9372842754
 H       -11.6754874907        5.6794468948        3.8134129250
 H        -5.8490567845        0.0162781881        5.7802466725
 H        -7.5372008529        0.1953235400        5.3068064315
 H        -7.0022407155        0.7110847324        6.8539308236
 H        -5.2228383773        2.4881140710        7.1356529084
 H        -4.8811722684        3.5857986173        5.6593355266
 H        -4.2709868954        1.9148596560        5.8080147735
 H        -4.4346824223       -0.1277490682       -0.4333421165
 H        -3.5882475152        1.3421212973       -0.2677641529
 H        -4.1318632606        0.9707926920       -1.8918196679
 H        -5.2396984048        3.2290812967       -2.0460256638
 H        -7.0012362919        2.8986035777       -2.0195745308
 H        -5.9961406391        1.7089711273       -2.7361696989
 H       -10.1144188853       -3.7038225160       -2.1639108790
 H       -11.6628889779       -3.1205927154       -2.1646739187
 H       -10.8006373756       -2.7007927195       -0.7302186651
 H        -9.6057537928       -2.6907127421       -4.4748005374
 H        -9.8597186013       -1.0761698224       -4.8558516561
 H       -11.2968370201       -2.1715953889       -4.6414325220
 H       -13.7745201728        3.3412848229       -2.7789406724
 H       -14.0722637797        3.9343178410       -4.4897332306
 H       -13.9778632429        5.0873948478       -3.1282632780
 H       -11.8365249826        2.6096124883       -5.1574116938
 H       -10.2829437820        3.3502632162       -4.5871230609
 H       -11.3543403593        4.2438992969       -5.7077654990
 H       -13.8197497604       10.4152843126       -3.8133121507
 H       -12.2513863084       11.0983495488       -3.2739668427
 H       -13.8116488338       11.9643725457       -3.0705136179
 H       -13.2322158992       10.9559961872        0.3751997784
 H       -13.3713788232       12.2628426278       -0.8048155125
 H       -11.9349616889       11.4872946947       -0.6844727452
 Na       -8.7389991058        3.2327205462       -0.2509739959
