117

 C       -15.6392554668       10.4888246491       -0.2903401137
 C       -14.8733308506        9.8050477968       -1.4521006849
 O       -15.4053904647        8.9773791477       -2.1988956940
 C       -13.4150696084       10.2473047018       -1.7472818035
 C       -12.5856706096        9.0012443322       -1.6122212632
 O       -11.9319025434        8.7712722626       -0.5772154309
 C       -12.7218012065        7.9111063650       -2.7542218520
 C       -11.9107201412        6.6312713613       -2.3927563980
 C       -11.5760634197        5.7684215792       -3.6258055964
 O       -10.9513083783        6.0915282040       -4.6096295185
 C       -11.9869108387        4.1498857727       -3.4975546228
 C       -11.1555507796        3.4553599791       -2.3737917560
 O       -10.1285692726        3.9916176820       -2.0186035110
 C       -11.5423439446        2.0710529913       -1.7824782136
 C       -10.7384479298        1.1390051309       -2.6009090316
 C       -11.1686507682       -0.3003879462       -2.2226698048
 O       -12.1868882173       -0.4840823555       -1.5367245487
 C       -10.2612023436       -1.5628662416       -2.6039550248
 C        -8.8150693850       -1.1115380347       -2.3797836169
 O        -8.1824863190       -0.5711657899       -3.2757447030
 C        -8.2264754582       -1.4951392567       -0.9722286807
 C        -6.8337287967       -0.8186495849       -0.7840034952
 C        -6.9464575890        0.7133248082       -0.5842539941
 O        -8.1160428075        1.1769979173       -0.5530150080
 C        -5.7376699526        1.6786795216       -0.6665711159
 C        -5.7909112730        2.7453400689        0.5459174235
 O        -6.6256336754        3.6137686147        0.5100267834
 C        -4.7101469180        2.6623825687        1.6952179390
 C        -5.1505220040        3.1152293374        3.0759160537
 C        -5.9671649382        2.0179302127        3.7529512900
 O        -6.3781500274        1.1294165180        3.0422956107
 C        -6.2825751764        2.0352833299        5.2351906519
 C        -7.5662563755        3.0015195393        5.3042769729
 O        -7.4852900729        4.0803444275        5.7865471571
 C        -8.8638468590        2.5763835597        4.5608797541
 C        -9.6958343424        3.7747736106        4.1700087897
 C        -9.7592837811        4.0567694261        2.6549910525
 O        -9.3438688948        3.1577194860        1.9157117840
 C       -10.3689112759        5.4149078051        2.1031366945
 C        -9.3141326627        6.1003710193        1.0717643167
 O        -8.7089355682        5.3971945030        0.2968918991
 C        -9.0052545766        7.6007869171        1.2441220653
 C       -11.5552835551        5.1441617234        1.1508321363
 C       -10.8228202665        6.3259255861        3.2823028757
 C        -6.7681391297        0.6758952794        5.7893723505
 C        -5.0824763015        2.5720748338        6.0287924215
 C        -4.4143595490        0.7886923894       -0.6826885864
 C        -5.9129414007        2.5621999468       -1.9027970914
 C       -10.7548235752       -2.8012198528       -1.8179230381
 C       -10.4165861229       -1.8308831900       -4.0754638069
 C       -13.5447859498        4.0332352799       -3.4224211859
 C       -11.6002895584        3.4800365805       -4.9024045873
 C       -13.4251460365       10.8166660691       -3.1557222392
 C       -12.9438728448       11.4240814149       -0.7073162054
 H       -16.5314956533        9.9366371234        0.0599739402
 H       -15.9130711127       11.4900010576       -0.5878664767
 H       -14.9557613244       10.7186179339        0.5773968525
 H       -12.3134544901        8.3316970438       -3.6424481584
 H       -13.7983164928        7.7762629232       -2.9069467671
 H       -12.3859763131        6.0650916496       -1.6157964196
 H       -10.8685691942        6.8503279004       -1.9916032411
 H       -12.6114543760        1.9484530586       -1.7887603696
 H       -11.3572635127        1.9880949086       -0.7201816213
 H        -9.6622817317        1.2621960138       -2.4479335090
 H       -10.8035278299        1.1774107350       -3.6628764023
 H        -8.2153608093       -2.5511502997       -1.0112419644
 H        -8.8750678652       -1.1837598871       -0.1479384720
 H        -6.1421363497       -1.1051047077       -1.5850707333
 H        -6.3992741807       -1.1858096137        0.1706898137
 H        -3.8606876452        3.2342847194        1.3766686126
 H        -4.4160583958        1.6294188854        1.8156672459
 H        -5.8090687052        4.0076897557        3.0064451783
 H        -4.2799395507        3.3339961690        3.7402364921
 H        -9.3909036924        1.8177280325        5.1948633540
 H        -8.6153095574        1.9835265562        3.6605188252
 H        -9.1715670283        4.6256509756        4.5703790231
 H       -10.7190210222        3.7153811153        4.4671204539
 H        -9.6883736295        8.2581228075        0.7626464240
 H        -8.0198513144        7.8708867087        0.9120741691
 H        -9.0886634545        7.8326255174        2.3057545016
 H       -11.3645644967        4.2702010522        0.4328899323
 H       -11.8030351906        5.9620428145        0.5327890454
 H       -12.4301637495        5.0261497809        1.7501083144
 H       -11.0335820301        7.3445361510        3.0232088510
 H       -10.0830120840        6.4073281401        3.9998664801
 H       -11.6866355580        5.8304823599        3.7622914525
 H        -5.9356230098       -0.0264412381        5.8732419130
 H        -7.6282122993        0.2648683951        5.1920450544
 H        -7.1788460946        0.8539180704        6.7742533237
 H        -5.3794536010        2.6052698087        7.0342011323
 H        -4.8479853966        3.5512094036        5.6447178465
 H        -4.2202689460        1.8619336274        6.0173973598
 H        -4.3967290747        0.0299356969        0.0824727393
 H        -3.5233117039        1.4315112050       -0.4605328485
 H        -4.1386005333        0.3756373940       -1.6324880111
 H        -5.0636614155        3.2681049050       -2.0112339122
 H        -6.8925688216        3.0403813375       -1.9119780511
 H        -5.9902624208        1.8358169755       -2.7224982219
 H       -10.2296630560       -3.6903043379       -2.2014551595
 H       -11.8354117920       -3.0139012541       -1.9345427547
 H       -10.5939909870       -2.6498864599       -0.7376957974
 H        -9.8069524761       -2.6942563828       -4.4607336814
 H       -10.0381403424       -0.9885206984       -4.6762929465
 H       -11.4534546528       -2.0570450147       -4.3074863357
 H       -13.6643379188        3.0458847727       -2.8862498779
 H       -14.0317592263        4.1119976159       -4.3671852493
 H       -13.9516247882        4.8690041416       -2.7948436273
 H       -12.3494160482        2.7111870253       -5.2748300893
 H       -10.5917610134        3.0544343305       -4.7575811895
 H       -11.5378271808        4.2280469259       -5.6536025234
 H       -13.7197239390       10.0830216234       -3.8876099575
 H       -12.4838362523       11.2250665755       -3.3603764504
 H       -14.2062808753       11.5853804974       -3.2008039245
 H       -12.8702242996       10.8649829810        0.2749402219
 H       -13.5833465953       12.2874555042       -0.5763078534
 H       -11.9963877386       11.9137995258       -0.9066788575
 Na       -8.7807541133        3.2766512831       -0.3944748223
