117

 C       -15.3841572088       10.6228200927       -0.3109134983
 C       -14.7757556571        9.8395315778       -1.4191835332
 O       -15.4142808386        8.9090621804       -1.9487582765
 C       -13.3487955444       10.1919194084       -1.9702922879
 C       -12.4984885714        8.8954492420       -1.7069184242
 O       -11.7538375459        8.8072025402       -0.7072208199
 C       -12.6009135893        7.7462420681       -2.7242925444
 C       -11.8053067796        6.5323390607       -2.3320500475
 C       -11.5774289594        5.6552266387       -3.5865039684
 O       -11.0595880378        6.0877501053       -4.5945087150
 C       -12.1838122690        4.1937457513       -3.4583437770
 C       -11.2843329382        3.5193087602       -2.4575970230
 O       -10.2744357760        4.1519057727       -2.0821205668
 C       -11.5763066405        2.0778904908       -1.8822955062
 C       -10.6227009938        1.0528561500       -2.4674605927
 C       -11.1577601771       -0.3654590230       -1.9850047345
 O       -12.2247242515       -0.5289473665       -1.3826840796
 C       -10.3195296998       -1.6276013283       -2.4508321600
 C        -8.8483142484       -1.3762871006       -2.3998312496
 O        -8.1916573841       -1.0339855021       -3.3668368473
 C        -8.0931306256       -1.5538859313       -0.9735561120
 C        -6.7882943688       -0.7831134866       -0.8735242833
 C        -6.8886324205        0.7056593951       -0.6473741787
 O        -8.0104166581        1.2301569490       -0.4754446218
 C        -5.5479501716        1.5481016747       -0.7183694142
 C        -5.5647160330        2.5423167374        0.6120517531
 O        -6.5296710615        3.2539746834        0.8096421385
 C        -4.5128388720        2.5209341599        1.6716876201
 C        -4.9905849998        2.9506006685        3.1272919861
 C        -6.1294326272        2.0365710107        3.6604352411
 O        -6.7453479850        1.3071293885        2.9492153939
 C        -6.4748517370        2.0826736040        5.2209080702
 C        -7.6396898380        3.1680950544        5.2285692598
 O        -7.3825726051        4.2584156723        5.6023175138
 C        -8.9917375069        2.7475145088        4.6116172329
 C        -9.8304168788        3.9549159948        4.1182002171
 C        -9.7082925701        4.2183778202        2.6495971691
 O        -9.5311400966        3.2408310751        1.9553894040
 C       -10.3199112949        5.5135888978        2.0229480118
 C        -9.2941610582        6.3552335335        1.0382821552
 O        -8.5196524933        5.7749237736        0.2934707521
 C        -9.1845969532        7.8378420665        1.2351264551
 C       -11.5730313592        5.0835447670        1.2151059880
 C       -10.8945564561        6.3857255405        3.2103378219
 C        -6.8516233588        0.6889468496        5.6949067793
 C        -5.3397091080        2.6630162914        6.1580872938
 C        -4.2697768572        0.6289250921       -0.8042420408
 C        -5.6835958217        2.4209241988       -2.0244086691
 C       -10.7189404596       -2.9273156391       -1.7426039676
 C       -10.7329577833       -1.7899303458       -3.9070638755
 C       -13.6669718419        4.2242283205       -2.9092260318
 C       -12.0315429085        3.5312358440       -4.8426690801
 C       -13.4057377055       10.5016789926       -3.4722086722
 C       -12.5598920514       11.3436944843       -1.2928453508
 H       -16.3559933510       10.2441471255       -0.2281122575
 H       -15.3922626677       11.6769620433       -0.5850692373
 H       -14.8975903742       10.6657376086        0.6682422032
 H       -12.1299253019        8.2242839865       -3.6125346649
 H       -13.6874063372        7.5941928450       -2.9295359138
 H       -12.1914030723        5.9616090953       -1.4312080229
 H       -10.9294447621        6.9340722461       -1.8724250115
 H       -12.6333874227        1.8634327423       -2.0760012595
 H       -11.5168953188        2.2414732011       -0.8104714742
 H        -9.5175061755        1.0802699595       -2.1470669495
 H       -10.5203329256        1.0606458840       -3.5094360324
 H        -7.8131278915       -2.5846176380       -0.9302518035
 H        -8.7451430630       -1.2908115345       -0.1168162553
 H        -6.3178469401       -0.9122816424       -1.8975947860
 H        -6.1893448395       -1.2605567711       -0.1390313175
 H        -3.6790393139        3.2016015059        1.3431410432
 H        -3.9869373639        1.5463889924        1.7716856408
 H        -5.2549325128        4.0411769789        3.3149885608
 H        -4.1981255934        2.7944119250        3.8243082648
 H        -9.5648485938        2.3560773777        5.4302652376
 H        -8.8766273159        1.9305610695        3.9393258150
 H        -9.4707477249        4.8821086601        4.6932674519
 H       -10.8787105120        3.6302881145        4.3056671282
 H       -10.1038587181        8.4156602642        1.3145071338
 H        -8.5444462727        8.3004007819        0.4383898190
 H        -8.6726814183        7.9672876984        2.1918187996
 H       -11.2813497631        4.9572784301        0.1713597867
 H       -12.3083353119        5.8535181734        1.0498764110
 H       -12.0257913953        4.2083539824        1.7086673192
 H       -11.4039688786        7.2969964122        2.8753039340
 H       -10.0843488476        6.8273762488        3.7952256647
 H       -11.6356402413        5.8219530834        3.8602324135
 H        -5.9737106030        0.0992555100        5.7802842967
 H        -7.5638134796        0.2267268607        4.9939085318
 H        -7.3412503678        0.7339421085        6.6274149822
 H        -5.6910560546        2.6066858654        7.2105680271
 H        -5.0586533698        3.7085942093        5.9298715247
 H        -4.4606186353        2.0245581316        6.0449091978
 H        -4.4550176141       -0.3249240678       -0.3586898080
 H        -3.3252381410        1.1268436460       -0.4580725681
 H        -3.8848061640        0.2944118130       -1.8117201662
 H        -4.8787933119        3.1165609631       -2.0187594212
 H        -6.6119831259        2.9462940424       -2.0156100358
 H        -5.5967695353        1.8052216154       -2.9438083430
 H       -10.1134682514       -3.7850251977       -2.0243583348
 H       -11.7212211477       -3.0895612662       -1.9863784249
 H       -10.7148854752       -2.8234069542       -0.6467819093
 H       -10.3699632994       -2.7827233921       -4.2637358123
 H       -10.3752374951       -0.9526446246       -4.4777616221
 H       -11.7870815990       -1.8294077626       -4.0629866842
 H       -14.3082763357        3.7243208828       -3.6013852411
 H       -13.9310276358        5.2602937156       -2.8920731292
 H       -13.8233263034        3.8067533368       -1.9256603646
 H       -12.0218959783        2.4316427594       -4.7521226193
 H       -11.1467526976        3.8685831709       -5.3430387402
 H       -12.9151953577        3.6886902276       -5.4376001252
 H       -14.1610884909        9.9414749445       -4.0585657115
 H       -12.3686072137       10.4037505662       -3.8842972284
 H       -13.6643290852       11.5511725939       -3.5902505453
 H       -12.2448820426       11.0442417271       -0.2889601912
 H       -13.1395224823       12.2193347913       -1.1311089201
 H       -11.6727125212       11.6270607544       -1.8696385579
 Na       -8.7536018405        3.4728337978       -0.2556168402
