117

 C       -15.1396545850       10.8401279329       -0.2398166518
 C       -14.5738741956        9.9870466778       -1.4049665813
 O       -15.1766052363        8.9586686154       -1.7414788200
 C       -13.1842127795       10.2685600981       -2.1605428145
 C       -12.3251818131        8.9472715398       -1.8704559915
 O       -11.6915476114        8.9311067083       -0.7993463790
 C       -12.4140540577        7.7721983501       -2.8247067711
 C       -11.5332681315        6.6110873184       -2.4603641409
 C       -11.6199014130        5.5873662220       -3.6056967783
 O       -11.3530467739        5.8645906156       -4.7528158155
 C       -12.1983742626        4.1478565989       -3.3652969391
 C       -11.3344651526        3.3566153998       -2.4075650985
 O       -10.2671535824        3.8505751740       -1.9900806732
 C       -11.8421647446        1.9007643133       -2.0179992272
 C       -10.7169015338        0.9067431262       -2.2877160977
 C       -11.0713413475       -0.5420116751       -1.8314173170
 O       -11.9442952522       -0.7238751025       -0.9796762761
 C       -10.4153214298       -1.7674582556       -2.4718734749
 C        -8.8885409862       -1.5049436898       -2.3823387006
 O        -8.1444867357       -1.2773219821       -3.2941797219
 C        -8.2629424417       -1.5183604587       -0.9221911785
 C        -6.7494932475       -1.0132329673       -0.9031964453
 C        -6.8562455935        0.5508333372       -0.8132711249
 O        -7.9114344885        1.1434561965       -0.7280216210
 C        -5.5070413054        1.5187570374       -0.6615866961
 C        -5.5678786865        2.2808746915        0.7116632347
 O        -6.4040054073        3.2093385154        0.8608807654
 C        -4.4829808528        2.0378739543        1.7611786919
 C        -4.8288549981        2.7226377337        3.0368774670
 C        -6.1864377087        1.9946237511        3.5295195320
 O        -6.6804366995        1.1524135076        2.8321570313
 C        -6.6001969237        2.2626620813        4.9908750943
 C        -7.6634234102        3.3995251900        4.9870435747
 O        -7.3599867612        4.4777305856        5.2873054109
 C        -9.0497253747        2.9972110751        4.5901259634
 C        -9.9905205348        4.1809450271        4.3267940669
 C        -9.8330042859        4.4400645935        2.7357507618
 O        -9.4556977830        3.5880521009        1.9814946083
 C       -10.5157881241        5.7696839896        2.1097009343
 C        -9.3490809730        6.4021434436        1.3075585848
 O        -8.7561217894        5.7559957148        0.4472265527
 C        -9.3182559081        7.8911679585        1.3048549097
 C       -11.6310363883        5.3729921471        1.0362973614
 C       -11.1601758303        6.6136948054        3.2062905983
 C        -7.2011156487        0.9574605619        5.5384478584
 C        -5.4198655574        2.6414295391        5.9337327818
 C        -4.1960989982        0.7430972417       -0.8057158221
 C        -5.4936009276        2.6445547810       -1.7587101612
 C       -10.8474151511       -2.8983964667       -1.6058917798
 C       -10.8698876301       -2.0106038253       -3.8842448465
 C       -13.5757029327        4.2116215914       -2.5536582249
 C       -12.2558660456        3.3265679318       -4.6050399937
 C       -13.5586066413       10.5235389882       -3.6062409412
 C       -12.5089913367       11.5542997103       -1.7045475556
 H       -16.1030334090       10.5331697829        0.0726010713
 H       -15.0609413098       11.9597532355       -0.4441905904
 H       -14.4681517589       10.7706774672        0.6336929238
 H       -12.2600990542        8.2227990405       -3.8061281696
 H       -13.4477596814        7.4639890189       -2.7728616809
 H       -11.7776176229        6.1702460515       -1.4573344705
 H       -10.5459173388        6.9229478076       -2.3289087466
 H       -12.7628292051        1.7759739430       -2.6256741629
 H       -12.0405882084        1.9595472089       -0.9134138615
 H        -9.7391353413        1.1630512856       -1.7778125992
 H       -10.4467707825        0.7648999826       -3.3485938894
 H        -8.1536558708       -2.6138638628       -0.6652594968
 H        -8.8898749020       -0.9689660262       -0.1918124053
 H        -6.2767274894       -1.2732809550       -1.8693327442
 H        -6.2764727008       -1.5085524734       -0.0769485532
 H        -3.4679926115        2.3297418941        1.4789176073
 H        -4.3191749479        0.9864937609        1.9365116946
 H        -4.8280445894        3.8221881306        2.9233901321
 H        -4.0900507633        2.6242790415        3.7786012471
 H        -9.3646375535        2.3352596337        5.4398360345
 H        -8.9598186397        2.3278326318        3.6852683298
 H        -9.6971432801        4.9931343876        4.9138912322
 H       -10.9715988680        3.8243450140        4.4732234867
 H       -10.2044094236        8.1582514394        0.6980835887
 H        -8.4787305087        8.3860196368        0.7683884915
 H        -9.4565310963        8.3808562458        2.2322225552
 H       -11.4502238690        4.4954286367        0.4567180896
 H       -11.5960847225        6.1578038013        0.2717898155
 H       -12.6026487750        5.2954636194        1.5780982265
 H       -11.9056602954        7.2769375094        2.8542531605
 H       -10.4906320529        7.1478386631        3.8918552527
 H       -11.7442734882        5.9532737440        3.8285124611
 H        -6.4257592510        0.1664118784        5.6259643132
 H        -7.9491333486        0.5235378225        4.8217542471
 H        -7.6375298953        1.1253313297        6.5459683359
 H        -5.8045691988        2.6298844130        6.9939221082
 H        -5.0873333883        3.6612698517        5.8122759929
 H        -4.6284133830        2.0032108140        5.7649735981
 H        -4.2222719779       -0.2181590733       -0.4628760024
 H        -3.3490176353        1.2817165220       -0.4577801455
 H        -3.9984466070        0.5050673301       -1.8897824206
 H        -4.5309962370        3.1470690050       -1.7947347792
 H        -6.2276244228        3.4041678653       -1.5005955199
 H        -5.5649453802        2.1985877729       -2.7934292091
 H       -10.4444806247       -3.8657594507       -1.9816704517
 H       -11.8690546130       -2.8903628942       -1.6292891834
 H       -10.5020117269       -2.8737999343       -0.5265858012
 H       -10.3566660995       -2.9220342809       -4.2158518870
 H       -10.7427785842       -1.1399834641       -4.4925702040
 H       -11.9243496732       -2.2273126783       -3.9912673189
 H       -14.4250516331        4.1840599682       -3.1919528136
 H       -13.6430135681        5.2258501188       -2.0355418555
 H       -13.6448839995        3.3733470011       -1.8534665973
 H       -12.1931308649        2.2573469609       -4.4567758738
 H       -11.4811619995        3.6121257843       -5.3073099759
 H       -13.2544383981        3.4308770370       -5.1378653639
 H       -13.8192476932        9.6279153000       -4.1494176210
 H       -12.6724175775       11.0013750585       -4.0884708726
 H       -14.3073681234       11.2348509891       -3.6979928011
 H       -12.4180095696       11.8108986585       -0.6513393338
 H       -13.0339721801       12.4360870934       -2.0906641028
 H       -11.4454527207       11.4359530599       -2.0494346744
 Na       -8.3925850192        3.4745952824       -0.2019773457
