117

 C       -14.8882583331       10.9766258914       -0.3159499607
 C       -14.4544216562       10.0170358190       -1.3777546672
 O       -15.0543847897        9.0206444859       -1.6342263329
 C       -13.1146387493       10.3106291683       -2.2168244882
 C       -12.1744593042        9.1450127010       -1.9714654867
 O       -11.6014280578        9.1024277883       -0.9174583832
 C       -12.3849331036        7.8724828634       -2.9700227316
 C       -11.4550764365        6.6987522073       -2.6625738205
 C       -11.6444578462        5.5539803867       -3.7005745480
 O       -11.4314918910        5.6690429951       -4.8907522923
 C       -12.2134218705        4.1321347398       -3.1628544006
 C       -11.2527260637        3.2156045884       -2.2521408917
 O       -10.2807495232        3.7237134918       -1.7961445204
 C       -11.6488055577        1.7354953939       -1.8241101677
 C       -10.7219297764        0.6913536711       -2.3599321663
 C       -11.1135971264       -0.6515160446       -1.6549460488
 O       -11.8291302972       -0.6350865588       -0.7023835724
 C       -10.3907328521       -1.9328852977       -2.2720167594
 C        -8.8043357203       -1.5738085205       -2.1934375760
 O        -8.2545388613       -1.3911834463       -3.2849874349
 C        -8.1127438019       -1.5186982854       -0.8878242415
 C        -6.8180734331       -0.7671445501       -0.9265391981
 C        -6.8755883625        0.7589754829       -0.8262920728
 O        -7.9443172341        1.3368105533       -0.8312309545
 C        -5.4801657054        1.4959290932       -0.7576860412
 C        -5.4927497537        2.2683180133        0.6327510512
 O        -6.3055522388        3.1131590588        0.7938133555
 C        -4.4380230070        1.9066902868        1.6577195554
 C        -4.7623005684        2.4400634932        3.0748077962
 C        -6.0765657314        1.8281773996        3.5920659692
 O        -6.7495768456        1.0385731858        2.9376189598
 C        -6.6244173395        2.2557980902        5.1024645144
 C        -7.6471716378        3.4059220030        4.8357225075
 O        -7.3188181308        4.6032175917        4.9563241414
 C        -9.1957693590        3.1278611188        4.7267204953
 C        -9.9770517472        4.3331540806        4.2226223896
 C        -9.9528527545        4.5369001138        2.6843226458
 O        -9.5103818030        3.6443255425        1.9680134514
 C       -10.7053591586        5.8803944327        2.1042398667
 C        -9.4980834030        6.5318320358        1.2981936180
 O        -8.7645186723        5.8739030193        0.6084230216
 C        -9.2922822785        8.0398250676        1.2735906394
 C       -11.8088050765        5.3838755828        1.0665782550
 C       -11.2589274559        6.8138334058        3.1818677710
 C        -7.3784848511        0.9594297678        5.6027250696
 C        -5.5030030363        2.7144448698        6.0856769223
 C        -4.2767439499        0.4918911553       -0.9930898862
 C        -5.4879806664        2.5351208951       -1.9728408066
 C       -10.7039418012       -3.2913780888       -1.5675110912
 C       -10.7813095008       -1.9982354424       -3.8076247542
 C       -13.6118038249        4.3081899182       -2.5919672452
 C       -12.4933253116        3.3478663803       -4.5172062218
 C       -13.6536807144       10.4628670626       -3.6755037130
 C       -12.3804410518       11.5714745936       -1.7273449951
 H       -15.7787404805       10.5290927858        0.1803270104
 H       -15.1485378359       11.9366154114       -0.6757501022
 H       -14.1511722581       11.1519741467        0.4469887575
 H       -12.2475892519        8.2601198022       -3.9903816555
 H       -13.4531643209        7.5274811808       -2.9299126815
 H       -11.5793916465        6.2800111413       -1.6874085779
 H       -10.3431352230        7.0542385767       -2.7987410138
 H       -12.6548252366        1.5769248022       -2.1723196085
 H       -11.5458337214        1.6905809525       -0.7587836508
 H        -9.6932651445        0.7915220083       -2.0760546798
 H       -10.7726854303        0.5255035694       -3.4588916447
 H        -7.9139993432       -2.5314820283       -0.5601564635
 H        -8.7833235469       -0.9989744070       -0.1957001447
 H        -6.3050639741       -1.0266471855       -1.8436878741
 H        -6.2811891592       -1.1600146887       -0.0280290704
 H        -3.4416133159        2.1912185318        1.2784954306
 H        -4.2642550197        0.8022165320        1.7265659498
 H        -4.7459853010        3.5068195118        3.1955787880
 H        -4.0456977589        2.1828416587        3.9100546179
 H        -9.4090305126        2.8227613803        5.7340806362
 H        -9.3671809087        2.3359121294        4.0499245773
 H        -9.6696135842        5.2425134077        4.8253814486
 H       -11.0789663400        4.0765804253        4.3278598437
 H        -9.7977242356        8.4791074772        0.3840451966
 H        -8.2588755697        8.3486076101        1.1967598349
 H        -9.7253319031        8.5759264606        2.1646090200
 H       -11.3876547432        4.9110700497        0.1401100838
 H       -12.5660992087        6.1749393815        0.7568366827
 H       -12.2896981589        4.5670023848        1.6294750036
 H       -11.6932040491        7.7269140918        2.6999819108
 H       -10.5732204115        7.0070128850        4.0146508468
 H       -12.1399119809        6.3956499977        3.6991681004
 H        -6.7000040606        0.1346290192        5.8599280466
 H        -8.0087958644        0.5675324640        4.8291306787
 H        -7.9632550612        1.1913782678        6.5105728512
 H        -5.9052570505        3.1041617645        6.9850314124
 H        -4.9670405171        3.5755679582        5.6603982101
 H        -4.7200642442        1.9202318413        6.2879105937
 H        -3.8517752828       -0.1234445585       -0.0798128306
 H        -3.4132528266        1.1150060181       -1.3121235281
 H        -4.4921886599       -0.2561097387       -1.7398462345
 H        -4.7095350013        3.2990860912       -1.8776275751
 H        -6.4160979646        3.1009036099       -1.9808464820
 H        -5.2576402606        2.0221605078       -2.8457426396
 H       -10.1252776256       -4.0711481314       -2.0089410696
 H       -11.8058164504       -3.5441641706       -1.6237539977
 H       -10.4117264600       -3.2832259173       -0.5642053708
 H       -10.2944811615       -2.8264463548       -4.2566707790
 H       -10.5794891575       -1.0841229814       -4.3903266897
 H       -11.8624064999       -2.1266562428       -3.9256967854
 H       -14.2210288047        4.9402422375       -3.2263040618
 H       -13.6489190977        4.7550929664       -1.6362454605
 H       -14.0433506728        3.3380965075       -2.5476711984
 H       -12.9849992472        2.4199750805       -4.2291421542
 H       -11.5873967256        3.0085942354       -5.0321224679
 H       -13.0761495577        3.8514469697       -5.2511175833
 H       -14.1091228600        9.5009621923       -3.9584261301
 H       -12.9230413308       10.6994600645       -4.4214220726
 H       -14.4030903622       11.3224345257       -3.6864548215
 H       -11.8156596414       11.3826080346       -0.8132330315
 H       -13.0894260892       12.3065991948       -1.3615307552
 H       -11.6534105006       11.9344460728       -2.3962885871
 Na       -8.5312592828        3.4436291600       -0.2359913308
