117

 C       -14.7594501386       11.0608033411       -0.3118708982
 C       -14.3690081976       10.0297506807       -1.3254352699
 O       -15.0138627614        9.0006460265       -1.5889407952
 C       -13.1504507181       10.3306348676       -2.2190668176
 C       -12.2068326935        9.0428017354       -2.0481695465
 O       -11.4242193350        8.9690991512       -1.1211166722
 C       -12.3187606182        7.8907870978       -3.0247918288
 C       -11.4375905160        6.6787117198       -2.6623782399
 C       -11.5981432056        5.4621333443       -3.6840279665
 O       -11.4318009085        5.6963800398       -4.8586706298
 C       -12.2446403789        4.0346846145       -3.1661063533
 C       -11.3265062076        3.2667719615       -2.2219419828
 O       -10.2946558303        3.8141121148       -1.7909625750
 C       -11.6472389552        1.8517093202       -1.7354864136
 C       -10.8015409466        0.7121931967       -2.3413423160
 C       -11.0178160637       -0.6870867004       -1.6010054227
 O       -11.7225488469       -0.7933029467       -0.6123198270
 C       -10.3891551527       -1.9729292108       -2.2514022307
 C        -8.8258345175       -1.6358257364       -2.2197857637
 O        -8.2075617610       -1.4213968402       -3.2245927666
 C        -8.2133511379       -1.5314462470       -0.8072905591
 C        -6.8374736407       -0.8369811478       -0.9152149217
 C        -6.8891628332        0.7121152689       -0.8811558644
 O        -7.8762096840        1.4035198237       -0.8919520237
 C        -5.4891156585        1.4390741574       -0.8313502660
 C        -5.4487264365        2.2399602936        0.5302546570
 O        -6.3065187549        3.1261851488        0.7301613974
 C        -4.4573363517        1.8783773609        1.7126053501
 C        -4.7862339563        2.3452721210        3.1024177188
 C        -6.1163827023        1.7846785008        3.6547766538
 O        -6.7373437353        1.0249833735        2.9956209548
 C        -6.6857690488        2.2435657219        5.0486010135
 C        -7.7042991778        3.4459847763        4.8364728389
 O        -7.2794088741        4.5210814472        4.6888532051
 C        -9.2246464787        3.1571701926        4.7526395181
 C        -9.9425538384        4.3744006540        4.2223456617
 C       -10.0275845983        4.5772266205        2.6696513802
 O        -9.6157276711        3.7065826474        1.9476857637
 C       -10.6237180329        5.8387331448        2.0713835784
 C        -9.5227564905        6.5777979330        1.1973151862
 O        -8.7595086566        5.8783024535        0.5644046946
 C        -9.3434616164        8.0699030527        1.3233408682
 C       -11.8105478052        5.3788830692        1.1371603189
 C       -11.2400700438        6.7974948365        3.0349703356
 C        -7.4001512996        1.1100645706        5.7611814572
 C        -5.5868955212        2.6275401103        6.0007260445
 C        -4.3013056902        0.5433032992       -1.0948574374
 C        -5.5104613685        2.4507541180       -1.9756227615
 C       -10.6377970097       -3.2262857929       -1.5363165963
 C       -10.7524981010       -2.1351193970       -3.6955251052
 C       -13.5899656534        4.4500838666       -2.4871511750
 C       -12.5105600414        3.2105070480       -4.4720441403
 C       -13.6041648535       10.5073996186       -3.7318639413
 C       -12.4411646844       11.6330111630       -1.7686968184
 H       -15.5363370284       10.7120254527        0.3228715774
 H       -15.1672621229       11.9997220169       -0.7891637398
 H       -13.9566728204       11.3439080008        0.3359824394
 H       -12.1450497876        8.2874261826       -4.0315997846
 H       -13.3748054405        7.5624925180       -3.0447824379
 H       -11.7436869134        6.2503033283       -1.6965883416
 H       -10.3526054400        6.9495855214       -2.6515963906
 H       -12.6891849092        1.7169378739       -1.9303539305
 H       -11.4104391071        1.8694195238       -0.6977778926
 H        -9.7771417126        0.8320614038       -2.2441517591
 H       -11.0808188737        0.4969063102       -3.4037285000
 H        -8.0543054951       -2.5993695022       -0.6294210218
 H        -8.8302005701       -1.1385608328       -0.0783558126
 H        -6.5565101701       -1.0542666008       -1.9308524455
 H        -6.0930650951       -1.2712012999       -0.1751150846
 H        -3.4815924418        2.3067439862        1.4831116804
 H        -4.1945084439        0.8274997755        1.7264094241
 H        -4.7863845960        3.4374228438        3.1560200588
 H        -3.9836310965        2.1694372788        3.8666510286
 H        -9.5108591490        2.8637462130        5.7488066999
 H        -9.3273370905        2.3213160402        4.0625148686
 H        -9.3106990255        5.2095129632        4.5991261056
 H       -11.0099068703        4.3726326137        4.6684105358
 H        -9.8738583817        8.5531694284        0.4840777028
 H        -8.3009942660        8.3545398268        1.1629834413
 H        -9.6952328555        8.5194287369        2.2005906775
 H       -11.5070723481        5.1923995636        0.1523134430
 H       -12.5397642928        6.2428866591        1.1436460434
 H       -12.2979765175        4.4580572196        1.4810060844
 H       -11.6340082974        7.6679258265        2.5113958920
 H       -10.6226528912        7.0138229355        3.9587518244
 H       -12.1026358987        6.3755066871        3.4886419760
 H        -6.7226808845        0.3556714677        6.0838777608
 H        -8.0852041977        0.6351873680        5.1399055777
 H        -7.8620162612        1.5159155094        6.6407159739
 H        -6.0846333463        3.0865988776        6.9305987715
 H        -4.9235065726        3.4276982487        5.6444626175
 H        -4.9784889717        1.8055643256        6.3061972676
 H        -4.1133814356       -0.2606203963       -0.4033748174
 H        -3.4032004068        1.1525848334       -1.0371514902
 H        -4.4374879039        0.0579723708       -2.1512532715
 H        -4.7653488259        3.2201524903       -1.9267982242
 H        -6.4497583130        2.9713088482       -1.9051679565
 H        -5.3666803919        1.9382135783       -2.9181242405
 H        -9.9274677987       -3.9709250194       -1.9515680885
 H       -11.5987134438       -3.5882810066       -1.5911413574
 H       -10.3038263743       -3.1178154460       -0.4770145914
 H       -10.3272217201       -3.0278157964       -4.1286945951
 H       -10.3365372174       -1.2844853327       -4.2647359588
 H       -11.8442770406       -2.0646958090       -3.8796890479
 H       -14.0670885557        5.3410397787       -2.7780593824
 H       -13.3198578667        4.5667591019       -1.3770128217
 H       -14.2883467831        3.6274187676       -2.5061820022
 H       -13.1937395166        2.4244089186       -4.2826863981
 H       -11.6888475658        2.6914533615       -4.9528835954
 H       -12.9163006598        3.9037987486       -5.2562715009
 H       -14.3826678156        9.7498880866       -3.8303975132
 H       -12.8720383551       10.2259275648       -4.5292462261
 H       -13.9655902938       11.5047045062       -3.9293111988
 H       -11.8298110399       11.5074438667       -0.9340400046
 H       -13.1595745163       12.3642154647       -1.3935260901
 H       -11.7973463191       12.0833209513       -2.4998515619
 Na       -8.6747052745        3.6453302646       -0.0672696754
