117

 C       -14.6665707959       11.0226432293       -0.2498601238
 C       -14.2326422461        9.9843078047       -1.3129999855
 O       -14.8862699154        9.0129385716       -1.4411100883
 C       -13.0277048144       10.2239800537       -2.3393920995
 C       -12.0395330087        9.0423422568       -2.2147963671
 O       -11.1441831084        9.0252632419       -1.3950267063
 C       -12.3131649745        7.8148470569       -3.1806690038
 C       -11.5937580398        6.5731172955       -2.6266583162
 C       -11.6063590007        5.4354299670       -3.6794916202
 O       -11.3209396915        5.5404153891       -4.8512495210
 C       -12.2605040713        4.0621181859       -3.0674040361
 C       -11.2781672785        3.3717380672       -2.1015293805
 O       -10.3120876913        3.9677096191       -1.7424398724
 C       -11.6855006925        1.9617117690       -1.5393019800
 C       -11.0132278872        0.7753556437       -2.3227977166
 C       -11.0874517033       -0.6642897093       -1.5621706785
 O       -11.5287504760       -0.7630017759       -0.4650517802
 C       -10.3890501982       -1.8620220521       -2.2511821666
 C        -8.7686546570       -1.5491565516       -2.2046944434
 O        -8.0651026628       -1.4991509424       -3.2093162649
 C        -8.1676670891       -1.4527930565       -0.7923025337
 C        -6.7782261116       -0.8413051365       -0.7514969711
 C        -6.8481055793        0.6651042058       -0.8626614704
 O        -7.9478179612        1.2129856870       -0.9009446236
 C        -5.5622157112        1.5105708152       -0.8428513620
 C        -5.5860850519        2.2977834046        0.5483857039
 O        -6.3855687596        3.1462463914        0.6867892315
 C        -4.6630607216        1.7911484910        1.6251216678
 C        -5.0926307217        2.3201875231        3.0070230020
 C        -6.2599462130        1.6486601586        3.6578612091
 O        -6.9222976680        0.7785429532        3.0937535428
 C        -6.7138352674        2.1956243623        4.9858119194
 C        -7.6028272870        3.3930562108        4.6302590953
 O        -7.0817443374        4.4409152038        4.1748256178
 C        -9.1402720862        3.2875475784        4.7192983856
 C        -9.8896884903        4.6084044511        4.3131321838
 C       -10.0337069457        4.5861411760        2.7587636250
 O        -9.8898641402        3.5576000847        2.1026182561
 C       -10.5591470136        5.8729354353        1.9755008738
 C        -9.4932020910        6.6455085547        1.1948541140
 O        -8.8732345688        6.0010098066        0.3799088845
 C        -9.4101006542        8.1667945998        1.2808350646
 C       -11.6832246193        5.4001505737        0.9702276125
 C       -11.2475958353        6.7393855317        3.0292443078
 C        -7.5092189912        1.1788806641        5.7579296404
 C        -5.6260634419        2.8287412132        5.8784522156
 C        -4.2601336265        0.6847876999       -0.9931375590
 C        -5.6007964660        2.6231098797       -1.9658333334
 C       -10.6606014719       -3.1315809409       -1.2896590946
 C       -10.8314878655       -2.2585907586       -3.7045561971
 C       -13.5481433923        4.3308089488       -2.2319781352
 C       -12.6537919125        3.1519412687       -4.2345640610
 C       -13.5572833020       10.4025754410       -3.7940486232
 C       -12.1452021611       11.4309103582       -1.9677121009
 H       -15.4729444607       10.6981879823        0.4737169773
 H       -15.1098632044       11.8428412755       -0.7513014598
 H       -13.8450853649       11.4244552245        0.3823698284
 H       -12.0069115959        7.9682333706       -4.2179515803
 H       -13.3726745034        7.6284169546       -3.2265408769
 H       -12.1400715244        6.1233681052       -1.8427372739
 H       -10.5551010478        6.8109762505       -2.3955073296
 H       -12.8068119534        1.8822094437       -1.5570760778
 H       -11.2720057605        1.9747201504       -0.4972507112
 H        -9.8577026392        0.9209725570       -2.3927916942
 H       -11.5418765795        0.6419948424       -3.2607403937
 H        -8.2446188885       -2.4663606128       -0.3609202063
 H        -8.8579022236       -0.7728183906       -0.1546380182
 H        -6.1580211079       -1.4009783629       -1.4883851269
 H        -6.4198604203       -0.9392753584        0.2386351359
 H        -3.6057225481        2.0134476328        1.4373002219
 H        -4.6914315333        0.6808184702        1.6418098242
 H        -5.3885592732        3.3773385917        2.9940204060
 H        -4.3063056081        2.3638973562        3.7221759764
 H        -9.4051985636        2.9259460392        5.7557117783
 H        -9.3749068953        2.5046544919        3.9492424144
 H        -9.4982676580        5.5422922653        4.6877747267
 H       -10.8614590164        4.4757231435        4.6909215554
 H       -10.2846745227        8.7357019603        1.0634920813
 H        -8.6993684788        8.4731145655        0.5613040312
 H        -9.0470532319        8.4627324573        2.2954532900
 H       -11.1866779255        4.6023922808        0.3668316467
 H       -12.1327259676        6.2204120347        0.4562728228
 H       -12.5147893404        4.9226067871        1.4430275415
 H       -11.8727805423        7.4885620027        2.5771970191
 H       -10.5227520356        7.2038798700        3.5911039636
 H       -11.8116380162        6.2105704359        3.8022074041
 H        -6.8567427690        0.3502679021        6.0419830465
 H        -8.3233387847        0.7690942463        5.1447407358
 H        -7.8554551655        1.6251007726        6.6813286929
 H        -5.8895757574        2.9585414495        6.8650601520
 H        -5.2395948418        3.7600541885        5.4902078506
 H        -4.7490028532        2.1138432184        5.9436126269
 H        -4.3404450306       -0.2333584386       -0.3563302626
 H        -3.3906925062        1.1214063031       -0.5537077786
 H        -4.1494494217        0.4772889943       -1.9662594649
 H        -4.5607824243        2.9946192585       -2.1278170738
 H        -6.2312561389        3.5092503505       -1.7211033392
 H        -5.9139735121        2.1596829580       -2.9061350257
 H       -10.0981056103       -4.0408755014       -1.4871433515
 H       -11.7936583775       -3.4004518870       -1.4446574299
 H       -10.5238589572       -2.8394109543       -0.2728634303
 H       -10.4893226678       -3.2745219634       -3.9502382146
 H       -10.3454621983       -1.6752101233       -4.5052772049
 H       -11.9088558026       -2.1438333834       -3.8157503019
 H       -14.1173803561        5.1566367262       -2.8105354856
 H       -13.4761821909        4.6009624134       -1.1991963797
 H       -14.2497731018        3.4433680814       -2.2755790885
 H       -13.2183085661        2.2310640986       -3.9335726526
 H       -11.7758198637        2.6404079045       -4.6642657234
 H       -13.0615026855        3.6694919451       -5.0538796391
 H       -14.3843492019        9.7478944332       -4.0310512712
 H       -12.8131733715       10.1730474250       -4.4891325232
 H       -13.8548905271       11.4641796861       -3.9062181628
 H       -11.9707486095       11.4745414537       -0.8425003775
 H       -12.5516101980       12.4123260277       -2.2238438214
 H       -11.1418487517       11.4513365230       -2.4228536043
 Na       -8.6416295860        3.6905222249        0.0169141115
