117

 C       -14.4550979489       11.0237986975       -0.3583691414
 C       -14.1331161191        9.9829197312       -1.3994797164
 O       -14.7449013384        8.9196787062       -1.4747564865
 C       -12.9233886215       10.2520657059       -2.3515650131
 C       -12.0600844962        9.0390750101       -2.2256801919
 O       -11.0718333245        9.0382382573       -1.5369323507
 C       -12.3132258858        7.8391536469       -3.1644713917
 C       -11.5837600097        6.5758590599       -2.6733236367
 C       -11.7529269156        5.3291132853       -3.5931104070
 O       -11.2877002032        5.3640918276       -4.7185583798
 C       -12.3420946140        4.0147275692       -3.0576042476
 C       -11.2492177085        3.2854687979       -1.9679267946
 O       -10.2472305456        3.8834465283       -1.6317314859
 C       -11.5180274445        1.9022883199       -1.4942644280
 C       -11.0056553263        0.7775118707       -2.3709211768
 C       -10.9991973567       -0.5258865421       -1.5376335568
 O       -11.5443162538       -0.5170929368       -0.4459967363
 C       -10.3576294990       -1.8385937543       -2.1470726036
 C        -8.7803516724       -1.6033113032       -2.1505209180
 O        -8.1970154439       -1.5209570520       -3.2092417670
 C        -8.1660927220       -1.4589040970       -0.7665931614
 C        -6.8256303401       -0.8243171679       -0.6182761371
 C        -6.8914218588        0.7310338708       -0.8159016325
 O        -7.9868891638        1.2891494909       -0.8917076147
 C        -5.5679509101        1.5974004751       -0.8593333704
 C        -5.7232242951        2.3127997008        0.5541202763
 O        -6.5056540269        3.2171768390        0.7670587246
 C        -4.8558205375        1.7102984796        1.6160366314
 C        -5.1933859527        2.3773963328        2.9580710131
 C        -6.3373756666        1.5896897131        3.6051776268
 O        -6.9369975657        0.6520068384        3.1723257392
 C        -6.7589896228        2.2269191946        4.9868058049
 C        -7.6024870398        3.4972455825        4.4728010602
 O        -7.0487155343        4.4078685076        3.9212806909
 C        -9.1245364719        3.3349552522        4.8170020461
 C        -9.8275301350        4.5759805188        4.2236719096
 C       -10.0612245879        4.5705354260        2.7420739310
 O        -9.9123535137        3.5634815011        2.0537314087
 C       -10.5929157654        5.8744906551        2.0541757990
 C        -9.5282786220        6.6472465591        1.1250446289
 O        -8.8668803640        6.0391565057        0.3186030374
 C        -9.4355470447        8.1508774850        1.2558449161
 C       -11.5898976274        5.4420475541        0.9361901197
 C       -11.3260728376        6.8564389981        3.0557077233
 C        -7.5298835548        1.1576570144        5.7795928867
 C        -5.5779051921        2.8261908894        5.8283591544
 C        -4.2748959318        0.7914641980       -0.9748240620
 C        -5.6256623130        2.6476493102       -1.9677943048
 C       -10.6696158124       -3.0132109545       -1.3385042689
 C       -10.7765209995       -2.1521293430       -3.5348180579
 C       -13.6475133045        4.2504606059       -2.2226970488
 C       -12.7069041511        3.1040114903       -4.2147909638
 C       -13.6110246774       10.2961756640       -3.7506823935
 C       -12.0152775915       11.4249948725       -1.9385711961
 H       -15.2358103517       10.7860977293        0.3850890233
 H       -14.8601724281       11.9145264968       -0.8331536069
 H       -13.5737594070       11.2928420619        0.2071246574
 H       -11.9514883122        8.1193374769       -4.1508786661
 H       -13.3966352833        7.5942970321       -3.2864196082
 H       -11.9807836860        6.2516735082       -1.7666453786
 H       -10.4501513146        6.7364405543       -2.6939508496
 H       -12.6310848081        1.8145259893       -1.3317131188
 H       -10.9786431229        1.8209869589       -0.5316895564
 H        -9.9605483050        0.9549288256       -2.6340272625
 H       -11.7519303452        0.5866261068       -3.2303259641
 H        -8.1133090747       -2.5433937516       -0.4572120259
 H        -8.9319369257       -1.0093501099       -0.0875483433
 H        -6.3219180903       -1.2867751968       -1.4478981963
 H        -6.3443698455       -1.0911492765        0.3467108043
 H        -3.8094419049        1.9820721837        1.3354275506
 H        -4.8495677185        0.5860898986        1.7079464938
 H        -5.4960872789        3.3942276196        2.9055669542
 H        -4.3460874637        2.4317459425        3.6921855521
 H        -9.1235232714        3.4423656022        5.8963700244
 H        -9.4505012178        2.3532506676        4.5295214350
 H        -9.2644618618        5.4909372180        4.4884268586
 H       -10.7933496698        4.7022647527        4.7645752077
 H       -10.3879850923        8.7144437452        1.4178041123
 H        -8.9396775386        8.6595964164        0.4161637476
 H        -8.8583714526        8.2673155501        2.1838191666
 H       -11.1907681191        4.4948799991        0.6545468927
 H       -11.7597647766        6.2263071398        0.1463569546
 H       -12.6536716990        5.2950767191        1.2475869587
 H       -11.7107846627        7.6665024747        2.4250064346
 H       -10.6120082547        7.3461929988        3.7673637849
 H       -12.0952037766        6.4563123139        3.6608969602
 H        -6.8164065780        0.3214322155        6.0513445763
 H        -8.2876297632        0.7381522877        5.1236650317
 H        -7.9777764718        1.5400414226        6.7577854135
 H        -5.7101808417        2.9202202210        6.8941114525
 H        -5.2069237642        3.7496199813        5.4177685550
 H        -4.7430920744        2.1303527667        5.8042259021
 H        -4.1175016651        0.0996536684       -0.1350324558
 H        -3.4170847799        1.4131870531       -0.9340868329
 H        -4.3388552769        0.3259790278       -2.0071482112
 H        -4.6319020368        3.1099998269       -2.1845771949
 H        -6.3272928763        3.4677318008       -1.6716116652
 H        -6.0125901860        2.2028785369       -2.8656694766
 H       -10.0865878357       -3.8903294495       -1.6651927927
 H       -11.6941938807       -3.3139437102       -1.4160447020
 H       -10.4167074619       -2.7689886309       -0.3054487635
 H       -10.3972776741       -3.0307348528       -3.9463636769
 H       -10.3462388372       -1.3877909619       -4.1777340054
 H       -11.8718276270       -2.1013260371       -3.6126830922
 H       -14.3033375147        4.7774135927       -2.8823590013
 H       -13.5503586179        4.8444911362       -1.2984539057
 H       -14.1534176971        3.3539393108       -1.9250065972
 H       -13.0241148893        2.1341490572       -3.9236862217
 H       -11.8785425079        2.8585168843       -4.8815569333
 H       -13.4151297778        3.6025278729       -4.8784408564
 H       -14.1399388524        9.3818543727       -3.9737688298
 H       -12.8731858018       10.4008482819       -4.5088020492
 H       -14.3179237652       11.1512148802       -3.8062610892
 H       -11.7657532097       11.4783925516       -0.8616310693
 H       -12.3811825497       12.4454230897       -2.2618614193
 H       -11.0676823555       11.4066447669       -2.4815185869
 Na       -8.5720727740        3.5079176620       -0.0459688443
