117

 C       -12.7415561800        6.0564656929       -8.8543932297
 C       -12.1764872497        6.4041184405       -7.4638323849
 O       -11.7799896866        5.5487036271       -6.7557618134
 C       -12.2095895199        7.8792428778       -7.1027359876
 C       -11.3531909185        8.2019641027       -5.8055494253
 O       -11.9896953990        8.2979679008       -4.7659737877
 C        -9.8516560211        8.3205129396       -5.8204583531
 C        -9.3487644297        8.5441656318       -4.2749128110
 C        -8.2866927021        7.4934135494       -3.9257784730
 O        -7.5951643803        6.9443296433       -4.7683896076
 C        -8.3011721763        6.9761166575       -2.4780181749
 C        -9.5953237179        6.0665566802       -2.5297827118
 O       -10.6405890076        6.2973380363       -1.8292201648
 C        -9.7563907334        5.0161357553       -3.7114095352
 C       -10.9951973860        4.1379555409       -3.3045095978
 C       -10.7970688382        3.6253358731       -1.8562164541
 O        -9.8063517911        3.7637392576       -1.1928228684
 C       -12.1340333422        2.8858456593       -1.2511811278
 C       -12.2260102380        3.2555862110        0.2497588849
 O       -11.8385938544        2.5546672806        1.1188328894
 C       -13.0307635588        4.5423099635        0.6815150327
 C       -12.8863440399        4.8843497634        2.1556567131
 C       -11.3313287747        4.9530912889        2.4922668432
 O       -10.5279250898        4.9588969294        1.6172158166
 C       -10.8995116638        4.8407591730        3.9628255733
 C       -10.1619594547        3.5138907308        4.2513042037
 O        -9.5377509739        2.9314050973        3.3529997315
 C        -9.9103428480        3.0674133771        5.7580963101
 C        -8.8722915927        1.8791369376        5.8593627081
 C        -9.3331984633        0.4899434596        5.9721122339
 O       -10.4537835816        0.0741779101        5.6537756462
 C        -8.1474852568       -0.6845221666        6.1390676747
 C        -7.7770531946       -0.9850753425        4.7106944881
 O        -6.8907605112       -0.2836543977        4.1999202319
 C        -8.6197555906       -1.8040603595        3.7550257744
 C        -7.8281557616       -1.8886458346        2.4516714946
 C        -7.8288533100       -0.5154883723        1.7726779511
 O        -8.7855696213        0.2187516264        1.8843583886
 C        -6.5720938980       -0.0752329807        0.9766498055
 C        -6.3825141162        1.4110057494        1.6073730768
 O        -7.2061701749        2.2530421569        1.3464904699
 C        -5.2446774950        1.6794625045        2.6241902680
 C        -5.3174434415       -0.9767680967        0.9685542397
 C        -7.0481951420       -0.0596411138       -0.5257797053
 C        -6.8350223753       -0.2730697183        6.9009890549
 C        -8.8493618872       -1.9870634229        6.7850712569
 C        -9.7327616821        5.9277384940        4.1097374796
 C       -12.0587816173        5.2988976599        4.9054346166
 C       -13.4879047280        3.2379897266       -2.0649593549
 C       -11.9652295503        1.3669788440       -1.6010262523
 C        -7.0000723270        6.1206913442       -2.2114615348
 C        -8.4484305027        8.0485551179       -1.3507080525
 C       -11.6108050483        8.6898405419       -8.3496688865
 C       -13.6927419700        8.3144665608       -6.8120722571
 H       -13.5915213783        5.3630034853       -8.6968338956
 H       -12.1364505338        5.5547747401       -9.6132747679
 H       -13.1828698684        6.7854761185       -9.3613428291
 H        -9.6839492682        9.2443249093       -6.4339173644
 H        -9.5096570070        7.3927693987       -6.2473488983
 H       -10.1394286225        8.6273559694       -3.5408471262
 H        -8.6506243810        9.3931438368       -4.2895307344
 H        -8.7681848965        4.5221449918       -3.8101154416
 H        -9.7965660531        5.5959876967       -4.6070887177
 H       -11.0839133868        3.3058539560       -3.9123392649
 H       -11.8513859642        4.7329296820       -3.4517862593
 H       -14.0160009151        4.4260382093        0.3101060445
 H       -12.6153322509        5.3346437686        0.1006665874
 H       -13.3266981580        3.9677712398        2.6334751210
 H       -13.1774473246        5.8501310425        2.4327660360
 H       -10.8928890140        2.8935911389        6.0909356309
 H        -9.3191690727        3.8726113535        6.1490663480
 H        -8.1343157737        1.8671148817        6.6116387289
 H        -8.3364463625        1.8857850759        4.9204524132
 H        -9.5864784835       -1.2841287664        3.5043260410
 H        -8.8250864324       -2.8542780148        4.1282957117
 H        -8.3044889836       -2.6290052434        1.8075337279
 H        -6.8461365861       -2.2386201254        2.6699611269
 H        -4.7826393157        0.8780429222        3.2027331573
 H        -5.6995011674        2.2958476835        3.4201268396
 H        -4.5907182007        2.3421189695        2.1195945174
 H        -5.5149491766       -2.0747328651        0.8712448479
 H        -4.6802016237       -0.7447214656        1.8790419968
 H        -4.7178741313       -0.6903607887        0.1463372816
 H        -7.2164743705       -1.0309037381       -0.9284989183
 H        -6.2485065348        0.3947984106       -1.1437822321
 H        -7.9138096627        0.5226215177       -0.5922025817
 H        -6.9779272680       -0.0340165515        7.9336760180
 H        -6.3441432003        0.4942170534        6.3963794445
 H        -6.1292073491       -1.1373658698        6.8409900991
 H        -9.0193909532       -1.8777519595        7.9096715854
 H        -8.4624820455       -3.0145971029        6.5619998684
 H        -9.8604477555       -1.8352034290        6.3351101782
 H       -10.1440750743        6.9497922749        3.8922922030
 H        -8.9954790998        5.6578286330        3.3252681651
 H        -9.3277469580        6.0673362548        5.1118651779
 H       -12.9800671055        5.1809121566        4.5028481920
 H       -11.8541610993        6.2830987016        5.2484176126
 H       -11.9667751944        4.8292824702        5.8987322832
 H       -14.3352021856        2.8085919549       -1.5127995608
 H       -13.5500785787        2.7535636289       -3.1093837306
 H       -13.7492248539        4.2509406097       -2.0658408320
 H       -11.2340750076        1.2020646369       -2.4064854539
 H       -12.9919421639        1.0538459495       -1.7873464489
 H       -11.6096574648        0.7756716953       -0.8022058084
 H        -6.2358627071        6.5868442978       -1.5921308475
 H        -6.4772046176        5.9729177765       -3.1366113053
 H        -7.2307182107        5.1558133258       -1.7614792688
 H        -7.4750319519        8.5298366549       -1.3168793076
 H        -8.7585484533        7.6133822186       -0.4018389559
 H        -9.3157135358        8.7359006106       -1.6326740457
 H       -10.8603935438        8.0651431243       -8.8363642923
 H       -11.1262317688        9.6142650298       -7.8885621499
 H       -12.3615738607        9.0824394255       -9.0133319570
 H       -14.0186293689        8.9648065958       -7.5605166614
 H       -13.7846993585        8.8409436047       -5.8973549031
 H       -14.4967066172        7.5253582853       -6.9169091616
 Na       -9.5118830297        2.5070809484        0.9402333976
