117

 C       -12.9765197885       11.1629645596       -0.8754852794
 C       -12.8053818132        9.7637862702       -1.5741338706
 O       -13.3655426879        8.7591714630       -1.2990386921
 C       -11.9714586570        9.8133994016       -2.9614784565
 C       -11.2148717470        8.4402539172       -3.1522243489
 O       -10.1317208459        8.2618011603       -2.6131405315
 C       -11.9146065745        7.2705189778       -3.8916497992
 C       -11.2860706809        5.9828440458       -3.3514416323
 C       -11.9675949986        4.7424326215       -3.9983092866
 O       -11.7865178729        4.5418153383       -5.1853553295
 C       -12.9197410066        3.7933373668       -3.0537641004
 C       -12.0070159037        3.0234226471       -1.9736144149
 O       -10.9126450416        3.4284052790       -1.5342614841
 C       -12.4921827580        1.7261377718       -1.3943721263
 C       -11.7433895240        0.5083355689       -2.0465886423
 C       -11.4332842501       -0.5830250439       -1.0345177224
 O       -11.7607696408       -0.3973486480        0.1182211590
 C       -10.6821890202       -1.8519515745       -1.5078139950
 C        -9.1413361995       -1.2851599706       -1.5874433017
 O        -8.7195441474       -0.7258229809       -2.5456636349
 C        -8.1914065253       -1.6546408736       -0.4403942091
 C        -6.9183071166       -0.7058542364       -0.5109017538
 C        -7.2535822767        0.7802951610       -0.4438772544
 O        -8.3794175758        1.0904688182       -0.1709507597
 C        -6.0959376372        1.7788941611       -0.6888890016
 C        -6.0888332203        2.6455430215        0.6447635979
 O        -7.0870416367        3.1874425016        1.0168976190
 C        -4.7252066176        2.8654975247        1.3761603667
 C        -4.9771245661        3.3571424517        2.8032199587
 C        -5.9379064734        2.3377592486        3.4544466029
 O        -6.1684252595        1.2262219560        2.9447827126
 C        -6.6159896385        2.4873707852        4.8823115658
 C        -7.4549917238        3.8217983153        4.8094123239
 O        -6.8589889283        4.8992260860        4.8297118959
 C        -8.9713245915        3.6947830146        4.7827285235
 C        -9.7115342366        4.9180515359        4.2144276888
 C       -10.2396389102        4.8190960188        2.7063408398
 O       -10.4614627220        3.7411282708        2.1959890267
 C       -10.4214971206        6.2022729040        1.9224564764
 C        -9.1515476454        6.3860800677        0.8820189443
 O        -8.8231365786        5.5226644715        0.0994122978
 C        -8.3884998658        7.6705875472        0.8716496275
 C       -11.6020006052        5.9832038421        1.0677171192
 C       -10.6656714624        7.4524158798        2.8841614641
 C        -7.5554441604        1.2918563208        5.2048304800
 C        -5.4279188941        2.5247598986        5.9157563236
 C        -4.8361906369        0.9871970241       -0.9873190904
 C        -6.4454615776        2.7879646350       -1.7816484193
 C       -10.9723934904       -2.9821672123       -0.5484648134
 C       -11.1642677480       -2.2483294169       -2.9377985618
 C       -14.0432554342        4.5253829950       -2.1706738320
 C       -13.6074209496        2.8750285656       -4.0633139692
 C       -13.0722320928       10.0226772561       -4.0540357686
 C       -10.8723971544       10.9348137960       -2.9128175047
 H       -13.6410825592       11.1157733686       -0.0620515443
 H       -13.2899126808       12.0113634816       -1.5874391047
 H       -12.0582567623       11.5781411659       -0.4390649719
 H       -11.7801464565        7.3506749814       -4.9704585834
 H       -13.0116665884        7.3320667730       -3.7186003358
 H       -11.4120788156        5.8734190966       -2.2842317517
 H       -10.2012406517        5.8438294685       -3.6680567592
 H       -13.6230359798        1.6155629115       -1.4985674943
 H       -12.1880871765        1.6870492570       -0.3148618059
 H       -10.8569562322        0.9808378637       -2.3815636731
 H       -12.0551972592        0.2886808698       -3.0975263501
 H        -7.8957499270       -2.7010636254       -0.4022107747
 H        -8.6696127440       -1.3305629974        0.4850962671
 H        -6.4158997054       -0.8573511177       -1.4857292795
 H        -6.2142059418       -1.0189410151        0.2578649945
 H        -4.0421192817        3.4575825582        0.7184461858
 H        -4.1639227148        1.9094887643        1.5887031162
 H        -5.3328311995        4.3678408394        2.8539646326
 H        -4.0267011221        3.2799335680        3.4063324421
 H        -9.3851308119        3.5460751732        5.7539733932
 H        -9.2054883203        2.8315671792        4.1947266930
 H        -8.9706226583        5.7942226056        4.3392855013
 H       -10.5747715110        5.2891800902        4.8436917834
 H        -8.9484065670        8.6040351073        1.0006317337
 H        -7.7130240451        7.8060048909        0.0112996148
 H        -7.7405980045        7.6233904505        1.6890130731
 H       -11.4433041573        5.0180672587        0.5963689719
 H       -11.6187341542        6.7929102542        0.3458341304
 H       -12.5417995830        6.0669844055        1.6542345669
 H       -10.8540154131        8.2441147594        2.2099964406
 H        -9.8638309734        7.7865113247        3.5692133335
 H       -11.5199973632        7.3040909049        3.4459161485
 H        -6.9791631776        0.3948578955        5.1918927758
 H        -8.2820149797        1.2669281392        4.4300002784
 H        -8.0092005678        1.3417701445        6.1731407052
 H        -5.7434432278        2.1194785920        6.8982316942
 H        -5.0363093495        3.5146014352        6.0309660447
 H        -4.6237143358        1.8947278048        5.7366373525
 H        -4.4595686658        0.4914461701       -0.1137497206
 H        -3.9530878761        1.6272555506       -1.3397599589
 H        -5.0807247200        0.3783313692       -1.8817880658
 H        -5.8412513438        3.7133490431       -1.7373966908
 H        -7.4326531552        3.2112887609       -1.5949875391
 H        -6.3882439364        2.3301525492       -2.7814835130
 H       -10.2679299885       -3.8095441169       -0.7975336533
 H       -11.9498207477       -3.3089861240       -0.7234132307
 H       -10.7451970934       -2.6342024497        0.4922614764
 H       -10.7042780169       -3.1831085286       -3.2791118249
 H       -10.7569483650       -1.4554145856       -3.5987281339
 H       -12.2992190662       -2.3066429846       -2.9592193938
 H       -14.6829204656        5.2353643448       -2.6690605699
 H       -13.4974200551        5.0753650980       -1.3110742222
 H       -14.6009025100        3.7858787202       -1.5735690040
 H       -13.9438412193        1.9332427943       -3.6616964713
 H       -12.9824407042        2.5763241552       -4.9282785037
 H       -14.4571965773        3.4536154018       -4.5616951412
 H       -13.6520867245        9.1173031207       -4.1269123863
 H       -12.6788999891       10.2794068500       -5.0386046954
 H       -13.7417789296       10.7951652710       -3.7163320436
 H       -10.1256538533       10.5675053612       -2.2388342198
 H       -11.3434612326       11.8409284426       -2.4448886003
 H       -10.5483028833       11.2706753356       -3.9138740822
 Na       -9.4268029170        3.1153493564        0.2205649338
