117

 C       -12.5826017559       11.1642212895       -1.2955971784
 C       -12.1834417662        9.7251486055       -1.7846862327
 O       -12.5429844013        8.7389335107       -1.2340711041
 C       -11.5036260417        9.6169627812       -3.1819890958
 C       -10.8728256517        8.0622346624       -3.3934983580
 O        -9.6888458465        7.8024697684       -3.2376538999
 C       -11.8586543075        6.8931811191       -3.7771834309
 C       -11.3444441105        5.6120986060       -3.1995531587
 C       -12.0364232308        4.4345896638       -3.8595498652
 O       -11.8747566566        4.1550386585       -5.0332127895
 C       -13.0386677699        3.5698890535       -3.0289792511
 C       -12.3032145355        2.9749359436       -1.8070593358
 O       -11.4980144266        3.7084053146       -1.1713742919
 C       -12.6463820369        1.5873066246       -1.4003997530
 C       -11.5830232300        0.5208013097       -1.7147747660
 C       -11.7563350865       -0.7362807269       -0.8503213891
 O       -12.5071947487       -0.6940647407        0.1130745801
 C       -10.8626769742       -1.9460388813       -1.2264923557
 C        -9.4070630655       -1.3329440680       -1.2725775007
 O        -9.0307274860       -0.7911699640       -2.2831800725
 C        -8.5449177566       -1.4172229302       -0.0215527888
 C        -7.2335111208       -0.5234770029       -0.0839555075
 C        -7.5397418018        0.8794881205       -0.2916945381
 O        -8.6379252156        1.3735255368       -0.0726226175
 C        -6.4050347426        1.8531623343       -0.7640030759
 C        -6.4129732680        3.0243778096        0.2997520458
 O        -7.2662439535        3.8744232956        0.3759368653
 C        -5.2542165875        3.1084221915        1.2176837205
 C        -5.7250285199        3.5003495818        2.6296358211
 C        -6.1989395559        2.3416288038        3.5133510392
 O        -6.3598440220        1.2058585079        3.0390438962
 C        -6.4542748780        2.6347240787        5.0464728737
 C        -7.4112904535        3.8807122905        5.0325024252
 O        -6.9682834447        5.0029561528        5.2998758260
 C        -8.7859281793        3.5365307059        4.4739482614
 C        -9.5427964183        4.8416833622        4.1493630293
 C        -9.8184279056        4.8481871274        2.6350854661
 O        -9.8329476489        3.7806496319        2.0488620526
 C       -10.0660749220        6.2577051521        1.9028253614
 C        -9.0194580839        6.5836203427        0.7946596408
 O        -9.0438931035        5.9223873702       -0.2356756316
 C        -7.9448909848        7.5537936710        1.1206135170
 C       -11.4262824319        6.1176866195        1.0955151621
 C       -10.2070404297        7.4333554749        2.9241504676
 C        -7.1665564226        1.4126601801        5.6418021114
 C        -5.1714825247        3.0959589524        5.8519789894
 C        -5.0781030104        1.1286441794       -0.7794764960
 C        -6.6730094072        2.6542382058       -2.0727590761
 C       -11.0681434596       -3.1165730752       -0.2311953767
 C       -11.2903602119       -2.5306161207       -2.6689964725
 C       -14.2289879601        4.4078138757       -2.4024544403
 C       -13.6871495599        2.5573146260       -3.9813902918
 C       -12.5632224492        9.9120984285       -4.2810383778
 C       -10.3003696445       10.5362696086       -3.2923599269
 H       -13.1313077518       11.1689272513       -0.4152039905
 H       -13.2916243349       11.6578972366       -2.0115936705
 H       -11.7786000972       11.8622465212       -1.1183749876
 H       -11.8315411946        6.9362333649       -4.9110162057
 H       -12.8412082756        7.1355436987       -3.4322887106
 H       -11.5264383471        5.5429046500       -2.1680210929
 H       -10.2412551408        5.5917577244       -3.3518590376
 H       -13.5914551637        1.2624540556       -1.8181897766
 H       -12.8551112664        1.4497994730       -0.3807424018
 H       -10.5593576139        0.9304089362       -1.6553512369
 H       -11.5914177717        0.2447712724       -2.7820033852
 H        -8.2863455334       -2.4222414596        0.2857744066
 H        -9.1429513038       -0.9212209414        0.7925704267
 H        -6.5444060248       -0.7934590588       -0.9338305655
 H        -6.6487109929       -0.6681302693        0.7921162752
 H        -4.4083162684        3.6575221732        0.9078292897
 H        -4.6954501079        2.1857292973        1.3614223687
 H        -6.4037449304        4.3836447434        2.6052954065
 H        -4.8116507631        3.9112683621        3.0707439189
 H        -9.5020562039        3.0775386564        5.2081709727
 H        -8.6756628259        2.8031685654        3.6316271236
 H        -8.9177134903        5.6720373761        4.4425209701
 H       -10.5042453701        4.7961505157        4.5992266171
 H        -8.2671751090        8.6199366489        0.9127799650
 H        -7.1012977607        7.3756554822        0.3961079481
 H        -7.5202311825        7.5579522344        2.0945906679
 H       -11.1476514536        5.8775935772        0.0452526102
 H       -11.8885368426        7.0971861712        1.2124514581
 H       -12.1675061657        5.3632763970        1.5124677113
 H       -10.6011533285        8.2904294391        2.3194691637
 H        -9.2621214177        7.8143007044        3.4729104044
 H       -10.9818328237        7.3148992666        3.6712616869
 H        -6.8408590762        0.4302417107        5.2373282445
 H        -8.2331096051        1.4080542597        5.3435512889
 H        -7.2374438367        1.5296518200        6.7495554767
 H        -5.4293260329        3.7677502351        6.7286147113
 H        -4.5462490082        3.7519626538        5.2400776283
 H        -4.5616613034        2.2612726152        6.0513556937
 H        -4.9855051723        0.3964664080       -0.0445067803
 H        -4.2811711296        1.8863398356       -0.7652075975
 H        -4.9519355995        0.5138078139       -1.6539975662
 H        -5.7782097378        3.2983230055       -2.1918719887
 H        -7.6149365449        3.1815428492       -2.0094421256
 H        -6.7838610656        2.0864368261       -2.9825877277
 H       -10.3535531929       -3.8868321901       -0.4998921667
 H       -12.0396861089       -3.4990639414       -0.4272573170
 H       -11.0958609065       -2.8197946132        0.8093573183
 H       -10.6971090836       -3.3867435816       -2.8841122218
 H       -11.1557184187       -1.7701625686       -3.4513041786
 H       -12.3573168763       -2.8526558052       -2.6126402506
 H       -14.8883923579        4.8161536208       -3.0978861932
 H       -13.7655681328        5.2312236054       -1.8146329218
 H       -14.7893270829        3.7693356035       -1.7762438434
 H       -14.2295972577        1.8726340994       -3.3942104544
 H       -12.9570312545        2.0558505630       -4.5994995212
 H       -14.5189195345        3.0618604209       -4.5188778059
 H       -13.2708676267        9.1294402561       -4.4641275373
 H       -12.0736221213       10.2334405374       -5.1865441048
 H       -13.1541178925       10.7939509611       -3.9785455791
 H        -9.4769955585       10.2190621409       -2.6504050696
 H       -10.7937295361       11.5389501667       -3.0779742081
 H        -9.8751082607       10.5696247185       -4.3142482519
 Na       -9.3868311422        3.5878944750       -0.2751995095
