117

 C       -12.6888705978        6.0530845258       -9.0540339191
 C       -12.1993576915        6.3337156358       -7.7137436079
 O       -11.9503425762        5.3548965708       -6.9519027537
 C       -12.2664475282        7.7753354166       -7.1448032814
 C       -11.4513049217        7.9836192287       -5.8233132096
 O       -11.9480248951        8.1039009635       -4.7523886723
 C        -9.8593482074        8.2675447496       -5.8490989036
 C        -9.2048296690        8.5020486418       -4.5832196113
 C        -8.3409228449        7.2965555244       -4.1477786059
 O        -7.7531302315        6.6417088162       -4.9726345740
 C        -8.4086617478        6.8522405929       -2.6427105023
 C        -9.7722729836        6.0293665212       -2.6382897046
 O       -10.6290455892        6.3299597350       -1.9287195450
 C        -9.9714205427        4.8489372303       -3.6833557524
 C       -10.9893049370        3.8641183343       -3.2547503465
 C       -10.9712384288        3.5325598840       -1.7949596311
 O        -9.9550909344        3.6076649974       -1.0815470374
 C       -12.2334673425        2.7983159571       -1.1892068357
 C       -12.2865751590        3.3298424543        0.2900327182
 O       -11.8383796785        2.6196679468        1.2224347835
 C       -12.8888015897        4.7207927288        0.6488519143
 C       -12.7592518439        4.9392743649        2.1167317891
 C       -11.2502861743        4.9918182827        2.4423074578
 O       -10.3732850250        4.8589106351        1.6004901527
 C       -10.7702898590        4.8761792279        3.9587750978
 C       -10.1322583147        3.4126693524        4.2449338137
 O        -9.7126759476        2.7947113740        3.3470221970
 C        -9.9664926404        2.9722636286        5.7007744285
 C        -8.6958052901        2.1439756867        5.8281660849
 C        -9.1659808513        0.5859097815        6.0251241670
 O       -10.3379779578        0.4880322746        6.0986124809
 C        -8.1195850838       -0.6021983752        6.1014401882
 C        -7.5363215983       -0.7492597205        4.7124928904
 O        -6.5287317693       -0.2067597603        4.3615905824
 C        -8.4064929727       -1.6718416156        3.8893198999
 C        -7.9267417845       -1.7750473555        2.3968925923
 C        -7.9221043459       -0.4091518548        1.7582568056
 O        -8.8946393947        0.3358476900        1.8733345126
 C        -6.7424798813        0.1013830226        0.9113796450
 C        -6.3625064268        1.5039247606        1.5169472667
 O        -7.0833962502        2.4742783403        1.3660020979
 C        -5.0334635600        1.7919603608        2.2269565444
 C        -5.4939152630       -0.8664410241        1.0513997416
 C        -7.1756977054        0.2390555537       -0.5546282888
 C        -7.0046340313       -0.0941236792        7.1403721080
 C        -8.7223692449       -1.8209749280        6.7808941257
 C        -9.6790409415        5.9089285265        4.1265694842
 C       -11.9201990715        5.1633692453        5.0385958462
 C       -13.5297448302        3.0589534346       -1.9837631088
 C       -11.6969665584        1.3178000386       -1.0297837341
 C        -7.2444626530        5.9825906891       -2.2914787500
 C        -8.6432043262        7.9462686403       -1.5345741803
 C       -11.7795560311        8.7714127154       -8.1202013798
 C       -13.7450111397        7.9873294880       -6.7925819916
 H       -13.1509908346        5.0782590623       -9.2187232087
 H       -11.8414079899        6.0889004228       -9.7740337443
 H       -13.4167684157        6.7968917016       -9.5679569204
 H        -9.7412667374        9.1301213347       -6.5259049335
 H        -9.3822958957        7.3810193175       -6.3692186245
 H        -9.9288062635        8.6396166763       -3.7739045098
 H        -8.5297376698        9.3346647970       -4.6584282965
 H        -8.9790568104        4.4914241088       -3.8636982127
 H       -10.3004247716        5.2963718724       -4.6248091725
 H       -10.8486837564        2.9230528356       -3.8979542321
 H       -11.9456591247        4.3148312206       -3.6252987236
 H       -13.9595231080        4.7518027831        0.3088281672
 H       -12.3687677023        5.4888823548        0.0181061191
 H       -13.1632167161        4.0984850041        2.6210870969
 H       -13.1827235175        5.9747397333        2.4172685170
 H       -10.8044097997        2.2789427302        5.8642954774
 H        -9.8330523745        3.8125356122        6.3506080466
 H        -8.0352141716        2.4297005651        6.6804647385
 H        -8.0760862309        2.1104388116        4.8944131122
 H        -9.3736236497       -1.1753721647        3.8645805850
 H        -8.4743654893       -2.6658695698        4.2904068660
 H        -8.6230496717       -2.3446707743        1.7805135091
 H        -6.8867179419       -2.2162956218        2.3961086222
 H        -4.7611429109        0.8814519742        2.6596483813
 H        -5.0634447852        2.4852279226        3.1146451556
 H        -4.3127470411        2.1590866748        1.4909966781
 H        -5.6126026280       -1.7975409694        0.5118929159
 H        -5.3570752944       -1.0616559257        2.0338738935
 H        -4.5761894936       -0.3101682682        0.7375433314
 H        -7.5081767133       -0.7052199098       -1.0195338174
 H        -6.3802710923        0.6968996357       -1.1008079891
 H        -8.0930441953        0.9236461356       -0.5930326207
 H        -7.3039669627       -0.3954175270        8.1842978750
 H        -6.8633744381        1.0368321937        7.1668904767
 H        -6.0968295458       -0.6232946215        6.9821086415
 H        -8.3183501697       -1.9684678775        7.7181542008
 H        -8.2706074918       -2.6295120095        6.2650890761
 H        -9.7785588708       -1.9040623382        6.8176361367
 H       -10.0028220030        6.8688022346        4.4241998743
 H        -9.0766542393        5.9830930656        3.2446813385
 H        -9.1222153156        5.5986842479        5.0224031902
 H       -12.1219018770        4.1415339137        5.5199725491
 H       -12.9203027093        5.5082939190        4.5868905831
 H       -11.6034265489        5.9518084465        5.6863038208
 H       -14.3538953822        2.4492447692       -1.5973800539
 H       -13.4228464971        2.7819067455       -2.9785426408
 H       -13.9028246655        4.1054382705       -1.8596747421
 H       -12.0918087838        0.5719668613       -1.7307092133
 H       -11.7920252348        1.0127648954        0.0189120402
 H       -10.6037981253        1.2739372431       -1.2986628263
 H        -6.4567609440        6.4649205889       -1.7316242073
 H        -6.7410191228        5.5732453439       -3.1700728662
 H        -7.5770495229        5.1810642148       -1.6467946428
 H        -7.7203234630        8.4247117959       -1.1685560541
 H        -8.9811330110        7.2606420404       -0.7334175030
 H        -9.4339112937        8.6318199888       -1.8166678687
 H       -10.7743667118        8.5712004301       -8.5139122864
 H       -11.8168495944        9.7150698563       -7.6760980674
 H       -12.5563710345        8.7989051795       -8.9374315979
 H       -14.4669126431        8.0768784818       -7.6790019631
 H       -13.7751479950        8.9965943285       -6.3027861864
 H       -14.1787806308        7.2211743035       -6.2099734367
 Na       -9.3901262964        2.6364571186        1.0322251998
