117

 C       -12.4997007072       11.0579084834       -1.4076195156
 C       -12.1525839353        9.6747262262       -1.8980101711
 O       -12.4250011647        8.7165608237       -1.1847630869
 C       -11.3749715840        9.5569801812       -3.2359473648
 C       -10.8738486724        8.1054206461       -3.4478333555
 O        -9.7131565680        7.8217691979       -3.3198049346
 C       -11.8367404659        6.9476438774       -3.8245750678
 C       -11.3761112658        5.6340730869       -3.2077576017
 C       -12.0942118460        4.4365804156       -3.8627211946
 O       -11.8516439580        4.2503679011       -5.0192433413
 C       -13.0843760634        3.5092457880       -3.0035483544
 C       -12.3527583671        2.8712481868       -1.7694435455
 O       -11.5506122424        3.5875835072       -1.1433322303
 C       -12.6567484299        1.5256750661       -1.3066128751
 C       -11.5577479732        0.5686331061       -1.6375775387
 C       -11.7404497760       -0.7196326154       -0.8616709476
 O       -12.5372211849       -0.7736452655        0.0476732015
 C       -10.8900943464       -2.0393369870       -1.1856081478
 C        -9.4489222630       -1.4554916611       -1.2034479187
 O        -9.0722954486       -0.8645460184       -2.2570108247
 C        -8.6171659316       -1.4759404794        0.0542296354
 C        -7.3388019571       -0.5912819159       -0.0688216032
 C        -7.6364987345        0.9268475057       -0.3355616345
 O        -8.7312460079        1.4013123969       -0.1419430185
 C        -6.3882795869        1.9776330041       -0.7148720626
 C        -6.3391757801        3.0614742063        0.3420011744
 O        -7.2028220693        3.9800748910        0.3459602924
 C        -5.1544137317        3.0726288540        1.3443919004
 C        -5.5683197770        3.4949215421        2.7902894413
 C        -6.0877757506        2.2976090624        3.5143709980
 O        -6.4500301967        1.2654152568        3.0307584512
 C        -6.4475412460        2.6252236697        5.0062014288
 C        -7.4016405462        3.8895233764        4.9621194514
 O        -7.0132878653        4.9623621778        5.3217384217
 C        -8.8292094500        3.6105767405        4.6312971009
 C        -9.5894658490        4.8795057525        4.1167460449
 C        -9.7668681472        4.8797089555        2.6081619809
 O        -9.7735955896        3.8946707022        1.9208901782
 C       -10.1205887312        6.3136226699        1.8631197142
 C        -8.9379084713        6.5927480130        0.7686428840
 O        -8.9995389149        6.0208786871       -0.3236910319
 C        -7.8782098310        7.5760190489        1.0927337243
 C       -11.5222501362        6.0202672254        1.1981290988
 C       -10.1832036195        7.4104667031        2.9047684274
 C        -7.0060039437        1.4407487622        5.7862869985
 C        -5.1849877791        3.0821296589        5.7681690337
 C        -5.0294709046        1.1670175790       -0.8390317743
 C        -6.8717871398        2.5391748106       -2.0853712063
 C       -11.1934288477       -3.0877052663       -0.1481235553
 C       -11.2143665407       -2.4352830373       -2.6055402642
 C       -14.1981568797        4.4241770458       -2.4458737054
 C       -13.8872951417        2.5213621004       -4.0780015169
 C       -12.4993330393        9.7787623427       -4.3019962970
 C       -10.1819591274       10.5454938426       -3.3079078787
 H       -12.9175730687       11.1483837726       -0.3715042288
 H       -13.2370091705       11.5650067679       -1.9923765036
 H       -11.6316855716       11.6561154143       -1.4123479404
 H       -11.8147051088        6.9640579694       -4.8611811401
 H       -12.8479476675        7.1890488940       -3.4526188681
 H       -11.3994597210        5.6316525664       -2.1103151737
 H       -10.3240678485        5.5107889726       -3.4507451220
 H       -13.6617416718        1.1609437738       -1.5036615519
 H       -12.6350810291        1.4934495658       -0.2220974197
 H       -10.6499952497        1.0393291348       -1.3000159082
 H       -11.3285009918        0.4058441092       -2.7413120645
 H        -8.2015404602       -2.5431457825        0.1940168841
 H        -9.1861448659       -1.2153267402        0.9825498779
 H        -6.7180797881       -0.9923071939       -0.8551113185
 H        -6.7361716348       -0.7062937427        0.8285383037
 H        -4.3942923088        3.7564701517        0.9228976592
 H        -4.4775415681        2.2245263886        1.4197884630
 H        -6.3883310837        4.1622226139        2.6942302134
 H        -4.8178613411        4.1178898324        3.3203026056
 H        -9.3974077618        3.2621219511        5.5164197041
 H        -8.8360327741        2.7524980225        3.8950355119
 H        -9.0274102941        5.7251466764        4.4004986845
 H       -10.6022778164        4.8575566574        4.4369480099
 H        -8.2144980267        8.6173188681        1.1565098205
 H        -7.1789889471        7.5246293753        0.2537025011
 H        -7.2729643898        7.3926459659        2.0224759659
 H       -11.2599652911        5.4568256776        0.2495993964
 H       -11.9251240216        6.9756825995        0.9784184328
 H       -12.2101938932        5.4610441784        1.8214874403
 H       -10.7102279928        8.3271850456        2.5212066145
 H        -9.2330151776        7.7076009606        3.3510464938
 H       -10.8723731052        7.1051843511        3.7762912789
 H        -6.3859681692        0.5490167318        5.6347951033
 H        -7.9884318598        1.0839508441        5.3325193619
 H        -7.2334721727        1.7423558403        6.8012423391
 H        -5.4746184331        3.4218595268        6.8013483847
 H        -4.7243248783        3.9993366305        5.3493434742
 H        -4.4455188913        2.2869720272        5.7078156705
 H        -4.7713808305        0.5402180693        0.0278180884
 H        -4.2131834729        1.8302374371       -1.0689895323
 H        -5.1316224503        0.4892224000       -1.5756650601
 H        -6.2031482610        3.3048716168       -2.3807312905
 H        -7.9011275731        2.8210298544       -2.1138883586
 H        -6.7747254623        1.7712173095       -2.8904157083
 H       -10.5015782273       -3.8451797665       -0.3965370625
 H       -12.2749866325       -3.5000268451       -0.1549065466
 H       -11.0090636661       -2.7183068848        0.8343965929
 H       -10.5658462204       -3.2314284554       -2.9819773291
 H       -11.0306600211       -1.5655828987       -3.1558621442
 H       -12.2349776713       -2.7235131958       -2.7058816895
 H       -14.9126534743        4.6975880621       -3.2446411503
 H       -13.8118484601        5.2726958344       -2.0273509608
 H       -14.7764284362        3.8225443255       -1.7569201380
 H       -14.6724540358        1.9678368652       -3.5744997181
 H       -13.1609547480        1.9117058251       -4.5526174235
 H       -14.4199086020        3.1400022241       -4.7735785328
 H       -13.2981986609        9.0445735885       -4.1611007366
 H       -12.0937409241        9.6797436609       -5.3603653553
 H       -12.9343208901       10.7588924864       -4.2556281666
 H        -9.4202153079       10.3295738674       -2.5717493374
 H       -10.6716644415       11.4898091183       -3.1769556778
 H        -9.6318515716       10.4747774620       -4.2825412341
 Na       -9.4648804583        3.7722057195       -0.2755724462
