117

 C       -12.3123214191       10.8635417832       -1.6641425358
 C       -11.6065772619        9.5323737234       -2.0904035325
 O       -11.6144328140        8.5936809773       -1.3497547515
 C       -11.0914963464        9.4698398771       -3.5889987735
 C       -10.5953491348        7.9309092420       -3.8452118667
 O        -9.4365626204        7.6273338739       -3.6475320213
 C       -11.6995475875        6.8333890913       -4.1377216900
 C       -11.6181875560        5.6415771445       -3.1779611771
 C       -12.2539890853        4.4480406029       -3.8609201451
 O       -12.1204255316        4.1417073910       -5.0116660571
 C       -13.2806742171        3.5170024045       -3.0004831395
 C       -12.4688172424        2.8382862230       -1.9361450559
 O       -11.5270136353        3.4186044276       -1.3824998822
 C       -13.0283858647        1.4713185016       -1.3312729013
 C       -11.8367464240        0.4600318448       -1.3561665870
 C       -12.0563763507       -0.8929230587       -0.6487496910
 O       -12.9370798552       -1.1427281018        0.1436714508
 C       -10.9494681661       -2.0654959460       -1.0363729537
 C        -9.5330904429       -1.5185936999       -0.8865823886
 O        -8.7956721338       -1.3157816085       -1.8477772821
 C        -8.9488364760       -1.0476938147        0.5622805715
 C        -7.6491328566       -0.3128390849        0.4076402189
 C        -7.8121278858        1.0411998583       -0.2007344005
 O        -8.9081898980        1.6229670084       -0.2021097204
 C        -6.5507379448        1.8759293373       -0.8282521825
 C        -6.1412054721        2.8812548912        0.3557783423
 O        -6.9101447160        3.7784844665        0.5889127294
 C        -4.8688946058        2.7089740971        1.2061454477
 C        -5.1094702218        3.3135812108        2.6173212119
 C        -6.2130036517        2.5508792145        3.3926910760
 O        -6.7784872978        1.5931039882        2.8906830451
 C        -6.3999993398        2.9076016375        4.8880294321
 C        -7.3852625280        4.1332542255        4.9516474158
 O        -7.0004628253        5.2706920178        4.9836493106
 C        -8.8860081378        3.8198947342        4.7724433852
 C        -9.6600692945        5.0261716216        4.2511703757
 C        -9.6884737782        5.0857494881        2.7101703703
 O        -9.3637222032        4.1240667841        2.0362200872
 C       -10.1113135035        6.3604226794        2.0312706022
 C        -9.0219937410        6.6695247571        0.8789789520
 O        -9.0235886504        5.9557283642       -0.0974776052
 C        -8.0093796175        7.7774470444        1.0980005915
 C       -11.5667274356        6.0513589078        1.5335579964
 C       -10.2684492750        7.5985611529        2.9092619810
 C        -7.1319234276        1.7689695113        5.6504457927
 C        -4.9714275822        3.1355238077        5.6101513237
 C        -5.4341634184        0.8812063085       -1.1829278604
 C        -7.1548971531        2.6077934579       -2.0950417087
 C       -11.2282437022       -3.1995976574       -0.0561239582
 C       -11.1915431080       -2.6584488062       -2.4499970487
 C       -14.2900772195        4.4258917614       -2.2057601110
 C       -13.9955528743        2.5949385959       -3.9217635473
 C       -12.1221272061        9.9245143742       -4.6606498830
 C        -9.8114928897       10.3557960143       -3.7104451264
 H       -13.1404813418       10.7201890350       -1.0292421484
 H       -12.6783682312       11.4659465194       -2.5189622233
 H       -11.6590138611       11.5921440632       -1.1842814378
 H       -11.6064781096        6.3999432167       -5.1726632149
 H       -12.6138349114        7.3093637528       -4.0913529859
 H       -12.1113781785        5.7884194769       -2.2351230442
 H       -10.5893317962        5.3362813442       -2.8460072052
 H       -13.8116349018        1.0887094640       -2.0691368067
 H       -13.4953690415        1.6999707615       -0.3307911182
 H       -10.9160702910        0.9932171813       -0.9361656370
 H       -11.6982204571        0.2477529435       -2.4090045615
 H        -8.8836333657       -1.8753574503        1.2425984828
 H        -9.6292993890       -0.4079627015        1.1600637149
 H        -7.1073389877       -0.8326938490       -0.4233622174
 H        -6.9635695876       -0.3046769639        1.2314280365
 H        -4.0003669005        3.2435977182        0.7840311069
 H        -4.5778998368        1.6442228870        1.3981998312
 H        -5.2534032231        4.4118136940        2.5929398951
 H        -4.1998334030        3.1721713634        3.1178513039
 H        -9.2860114153        3.5965958934        5.7596576167
 H        -9.0185491500        2.9438616203        4.1862975661
 H        -9.1787703616        5.9506551685        4.6784608923
 H       -10.6809961197        4.8857164567        4.6677151471
 H        -8.4161080193        8.8211255627        1.1274193656
 H        -7.2930055921        7.6834762000        0.2401229449
 H        -7.4895348859        7.7161117263        2.0134733899
 H       -11.5421859384        5.6252822142        0.5421092694
 H       -12.0421890797        6.9663678520        1.3988541830
 H       -12.0104265635        5.3534354133        2.2265203462
 H       -10.5744496213        8.4410722855        2.2714587071
 H        -9.2432256148        7.9361112052        3.2854804556
 H       -10.9036980769        7.5035729243        3.7629657144
 H        -6.6821752416        0.7799196607        5.4498429470
 H        -8.1405542365        1.7172914981        5.2880738356
 H        -7.1043419175        1.8599832366        6.7592026248
 H        -5.1477633704        3.7075448943        6.5787157523
 H        -4.3301349090        3.6967643256        4.9198161024
 H        -4.4877437732        2.2222328996        5.9020196216
 H        -5.1446982384        0.3904414333       -0.2756767466
 H        -4.4616675994        1.2688846479       -1.5977548028
 H        -5.8068859722        0.3102858527       -1.9679820298
 H        -6.4166813362        2.8852901840       -2.8700307361
 H        -7.5679819347        3.5559280678       -1.7852522028
 H        -7.8673717006        1.9726552082       -2.5533753590
 H       -10.4152302200       -3.9136261208        0.1182487001
 H       -12.1282206023       -3.7191341473       -0.4035042762
 H       -11.4660077442       -2.8077750093        0.9497895869
 H       -10.4155110987       -3.3053485020       -2.6807758787
 H       -11.1743600404       -1.8594165320       -3.1683676295
 H       -12.1575193907       -3.1444895824       -2.4711000746
 H       -14.9183227563        4.9127765227       -2.9186645981
 H       -13.7229950102        5.1589315302       -1.5862282917
 H       -14.8053168837        3.8489951534       -1.4468914584
 H       -14.1837867716        1.7116974089       -3.4155086829
 H       -13.4466462420        2.4856598165       -4.8365959968
 H       -14.9114611345        3.1570374099       -4.2004083542
 H       -12.9756605126        9.2458222933       -4.7986146447
 H       -11.6577744659       10.0206832077       -5.6300242473
 H       -12.5335737928       10.9412709083       -4.3818056010
 H        -8.9336786552        9.8869828189       -3.3206488748
 H        -9.8944857837       11.3242327718       -3.1972387093
 H        -9.7731533084       10.4650366410       -4.7571599206
 Na       -9.4937064059        3.8175766394       -0.1631101483
