117

 C       -12.2562444324       10.8442054083       -1.6541330883
 C       -11.6387120376        9.5847915339       -2.2340684615
 O       -11.5052136789        8.6415847257       -1.4397461880
 C       -11.0069407915        9.4497377912       -3.6405141701
 C       -10.6146503996        7.8846305774       -3.7953977573
 O        -9.4714810145        7.5368157116       -3.7779062991
 C       -11.6127059498        6.8302740007       -4.2001851787
 C       -11.5826964409        5.6646648975       -3.2523840385
 C       -12.2964114083        4.4528293338       -3.8547211571
 O       -12.0891522699        4.1723537328       -4.9957748458
 C       -13.3337181445        3.5326878463       -2.9174285537
 C       -12.4358811785        2.8414023188       -1.8280458628
 O       -11.4196589992        3.4378099838       -1.4011769332
 C       -12.8231658079        1.4520477105       -1.3002838105
 C       -11.7568340815        0.3619179020       -1.4135155013
 C       -12.0938421609       -0.9183608776       -0.7223773678
 O       -12.9400671700       -1.0294729623        0.1248012245
 C       -11.0680255300       -2.0767684353       -0.9419374737
 C        -9.5720027745       -1.4733024790       -0.7666933135
 O        -8.8660614666       -1.3229191526       -1.7683187219
 C        -8.9982953569       -1.0418893801        0.5439346813
 C        -7.6493637859       -0.3171061011        0.4319552154
 C        -7.8113649640        1.0097450379       -0.1973167064
 O        -8.8948170398        1.5671038202       -0.3266084684
 C        -6.5999449178        1.8005410236       -0.7571227182
 C        -6.2230825107        2.8770336391        0.3228210806
 O        -6.9355889366        3.8552204662        0.5413783060
 C        -4.9167576476        2.6770148989        1.1730062631
 C        -4.9956326879        3.1772085722        2.6481392306
 C        -6.1209848153        2.4292093104        3.4030145648
 O        -6.8640721717        1.6777759408        2.8426581070
 C        -6.4112183837        2.9188520251        4.8743002192
 C        -7.3241258885        4.1727614804        4.8511924000
 O        -6.9298064446        5.3147100308        4.8465911330
 C        -8.9211502364        3.8978890665        4.8856479028
 C        -9.6377263531        5.1533566367        4.2967031601
 C        -9.6515637935        5.0678387327        2.7736060198
 O        -9.4491117351        4.0268923358        2.2267009939
 C       -10.1772357240        6.4393643299        1.9755264116
 C        -9.1183300443        6.7093181985        0.8647367851
 O        -8.9624618494        6.0181603089       -0.1446743102
 C        -8.1498751861        7.8281494036        1.1613716933
 C       -11.5905625351        6.0944354630        1.4574501927
 C       -10.1724099580        7.6959865939        2.9706877523
 C        -7.0362488506        1.7005787753        5.6378596182
 C        -5.0567014040        3.2518102534        5.5814205082
 C        -5.5098125897        0.7758647863       -1.2307422328
 C        -7.1432739292        2.5817782791       -1.9509272926
 C       -11.3339311544       -3.2562608271        0.0457759250
 C       -11.1220709035       -2.6510669643       -2.4407559100
 C       -14.3347070785        4.3215105424       -2.0913402059
 C       -14.1070687450        2.5960949959       -3.9493207094
 C       -12.0477673775        9.8198999715       -4.6679516815
 C        -9.7239326045       10.3134236306       -3.6694330972
 H       -13.0856982015       10.7380996584       -0.8794441521
 H       -12.5672552601       11.6052033194       -2.3474879642
 H       -11.4540493281       11.3406027677       -1.1703496373
 H       -11.2504492395        6.4601254961       -5.1878858600
 H       -12.6140921754        7.2762500213       -4.4119430378
 H       -11.9675948055        5.9015824069       -2.2529471047
 H       -10.5387494241        5.3061689651       -3.0698236158
 H       -13.7884399078        1.2372504189       -1.8136651316
 H       -12.9484373687        1.5469529233       -0.2113959399
 H       -10.9823704646        0.7464412808       -0.7050832392
 H       -11.3508182486        0.2174937929       -2.4567141324
 H        -8.9678182582       -1.8770747239        1.1713356409
 H        -9.6450170935       -0.4250400143        1.1344124999
 H        -6.8478451956       -0.9052048791       -0.1035709550
 H        -7.2407142308       -0.1313867849        1.4228166252
 H        -4.2029146822        3.3824281842        0.7891973819
 H        -4.4916112223        1.6568440800        1.2043536537
 H        -5.3010347560        4.2327148315        2.6283615258
 H        -3.9694121299        3.1790245120        3.0481935091
 H        -9.2783478010        3.6127211165        5.8490833336
 H        -9.0419490267        3.0379687402        4.2613812567
 H        -9.0162421401        6.0543025302        4.6583967691
 H       -10.6989732508        5.2323131109        4.6817798566
 H        -8.6686600134        8.7659813106        0.9788427696
 H        -7.4339862310        7.7407581582        0.3809101066
 H        -7.6838131581        7.9931471538        2.1229254593
 H       -11.4344534397        5.7736469521        0.4163701807
 H       -12.2324224751        6.9044718167        1.3740905481
 H       -11.9595585341        5.2714635710        2.0235655418
 H       -10.2758988852        8.5774949384        2.3897709790
 H        -9.3388808439        7.8696777492        3.5592318083
 H       -11.0815654456        7.6476761785        3.5843673788
 H        -6.5971498374        0.7729454649        5.3792932350
 H        -8.0612558903        1.6840564972        5.2945015190
 H        -6.9792514293        1.7366911483        6.6745821025
 H        -5.2040168057        3.6250097698        6.6212021270
 H        -4.5410156546        3.9626612751        4.9476383970
 H        -4.4951528458        2.3585227514        5.6974741043
 H        -4.9658425959        0.2889834251       -0.3420924374
 H        -4.6895178802        1.2280183008       -1.8510092562
 H        -5.9895283114        0.1724983584       -1.9669697371
 H        -6.3149992096        3.0112995810       -2.4805643783
 H        -7.7089063772        3.4304575640       -1.6785014197
 H        -7.6689909259        1.8833693932       -2.6324799211
 H       -10.5926352510       -4.0354961271       -0.0460672582
 H       -12.3837700992       -3.7242648482       -0.1904231136
 H       -11.3185977896       -2.9880132873        1.0991580909
 H       -10.2177641743       -3.2560368858       -2.5563047401
 H       -10.9386249773       -1.8347433752       -3.0781229460
 H       -12.0098999878       -3.1879564824       -2.7219046527
 H       -15.0313886358        4.8792428945       -2.8015932281
 H       -13.8962438033        4.9379531713       -1.3625788152
 H       -14.8467535422        3.5589477769       -1.4568999322
 H       -14.2722779195        1.6608079682       -3.4209468351
 H       -13.5126540897        2.4580083085       -4.8511599533
 H       -15.0070559394        3.1558598728       -4.2346174693
 H       -12.9251339881        9.1651632960       -4.7019375763
 H       -11.6383872466        9.9074996077       -5.7241646631
 H       -12.4149456255       10.8028177626       -4.3787396249
 H        -8.9312357216        9.9276251332       -3.1108121018
 H        -9.9687246879       11.2697803213       -3.2539413503
 H        -9.5558839867       10.4873593152       -4.7428213573
 Na       -9.5977546838        3.8582650959       -0.1919230085
