117

 C       -11.9998474025       10.7839694435       -1.8938535034
 C       -11.5492805760        9.3830805428       -2.2339000217
 O       -11.4280187973        8.5226302115       -1.4067282737
 C       -10.9077254435        9.3532312382       -3.6916259774
 C       -10.4904204576        7.8903751174       -3.9251864787
 O        -9.3097886966        7.5725833992       -3.8832711954
 C       -11.6573919604        6.8777882929       -4.2258872320
 C       -11.6960062966        5.7106130258       -3.1975318646
 C       -12.3799477893        4.4132548674       -3.7929435867
 O       -12.2574729560        4.0734212313       -4.9399123930
 C       -13.3084129516        3.4750881322       -2.8263036687
 C       -12.3356419133        2.8703886063       -1.8310198595
 O       -11.3295723387        3.5045195423       -1.6042618817
 C       -12.6481443199        1.4948605198       -1.1743792416
 C       -11.6469208948        0.3650607174       -1.6608547024
 C       -11.9250029460       -0.8768031104       -0.7305665780
 O       -12.9341801028       -0.9067337594       -0.0435545749
 C       -11.0196356587       -2.1624725087       -0.8762797142
 C        -9.5761080553       -1.6487161830       -0.6891965318
 O        -8.8903100153       -1.2505284561       -1.5961564861
 C        -9.1410885509       -1.1741022987        0.7179539180
 C        -7.8376200813       -0.3317928915        0.6564633633
 C        -8.0754272506        0.9458649587       -0.1820121734
 O        -9.1468598093        1.5084574470       -0.2405205334
 C        -6.6892370479        1.7254551836       -0.8585952147
 C        -6.3404346504        2.7643135567        0.3288395871
 O        -7.0551096737        3.7339741946        0.5012259264
 C        -5.0019155886        2.6199692688        1.0472486283
 C        -5.0036075843        3.0295912648        2.5794660723
 C        -6.1290841034        2.4814138329        3.3565821558
 O        -6.9594899978        1.7804000381        2.7763449026
 C        -6.3469604823        2.9191967794        4.8703779682
 C        -7.3029344952        4.1462255605        4.8025543961
 O        -6.7580563899        5.1471623419        4.3655215920
 C        -8.8605264532        4.0673645612        5.0484571841
 C        -9.4988493620        5.2941535613        4.4124831472
 C        -9.7959230871        5.1839800918        2.8699122650
 O        -9.7809752946        4.0992498018        2.2835361893
 C       -10.1927469518        6.5218490262        2.0396827877
 C        -9.0343879762        6.8267149454        0.9593416459
 O        -9.0491703187        6.1403372228       -0.0282794891
 C        -8.2092701640        8.0680882353        0.9356667924
 C       -11.4049512611        6.2130118604        1.2215055166
 C       -10.4993681203        7.7292035419        3.0465376678
 C        -6.8597907116        1.6753360774        5.5450199069
 C        -5.0386794065        3.4423644023        5.6532792391
 C        -5.5362459007        0.7941858396       -1.0925976066
 C        -6.9832725455        2.6050309917       -2.1159893403
 C       -11.4082108916       -3.2288975528        0.1791553685
 C       -11.2549628551       -2.6931660929       -2.2583251380
 C       -14.3224460864        4.3005568137       -2.0206711474
 C       -14.0853598549        2.5106321940       -3.7784799213
 C       -11.8875011266        9.8653609647       -4.8094568158
 C        -9.6326220922       10.2329209591       -3.7350121216
 H       -12.8238704953       10.6844531480       -1.2755813956
 H       -12.2438161814       11.4845948091       -2.7161695467
 H       -11.2867168421       11.3631152256       -1.2469362933
 H       -11.3965109714        6.5360572583       -5.2456391271
 H       -12.5893400350        7.3849976450       -4.3618141329
 H       -12.2947971450        6.0817721501       -2.3497471209
 H       -10.6985093274        5.4523470896       -2.8183449514
 H       -13.6638466774        1.1868339871       -1.2529326343
 H       -12.3423750408        1.5920691253       -0.1648199873
 H       -10.6075467016        0.6758439243       -1.4821258494
 H       -11.8875126520        0.0334200498       -2.6372198831
 H        -9.0441796606       -1.8880142168        1.5901078592
 H        -9.9709146375       -0.5561838978        1.1289177915
 H        -7.0213055064       -0.9270514803        0.3299437563
 H        -7.5572085717       -0.0376247598        1.6946714610
 H        -4.2956428853        3.3239313325        0.5765299768
 H        -4.6901275462        1.5892651686        1.0948239024
 H        -5.1000488912        4.1356412176        2.6490123352
 H        -4.0479643683        2.7537790574        3.0637624083
 H        -8.9685453177        4.0346397581        6.1760141407
 H        -9.1792839870        3.0456000387        4.7207931293
 H        -8.8376268440        6.1047928295        4.6164920808
 H       -10.4189796687        5.5071930858        4.9269168140
 H        -8.8382070207        8.9515131550        0.8537520087
 H        -7.3603726119        8.0601913356        0.2258832545
 H        -7.8257889426        8.1977060782        1.9260416582
 H       -11.2314568195        5.5005799063        0.4035101059
 H       -11.7697970363        7.1514994936        0.7259122043
 H       -12.1791575036        5.8538501782        1.9744685609
 H       -11.0757940784        8.5565901074        2.6015165377
 H        -9.5390105624        8.1450708372        3.5054707021
 H       -11.1995565797        7.3704904061        3.7368172160
 H        -6.0434640413        1.0499786592        5.9048550657
 H        -7.5192193800        1.1495011231        4.9086898542
 H        -7.3875682800        1.9326941658        6.4909160514
 H        -5.1533863947        3.1945224224        6.6973001323
 H        -5.0299066172        4.5110947089        5.5368261105
 H        -4.1343927406        2.9171579735        5.3561527040
 H        -5.2495279012        0.2321399606       -0.2358151135
 H        -4.6803294376        1.3780462758       -1.4556349378
 H        -5.7738834651        0.1708759116       -1.9680019629
 H        -6.2669183450        3.4620090668       -2.1611627438
 H        -7.9710284462        3.1251167414       -2.0510566105
 H        -6.9457070279        1.9972460496       -2.9879310648
 H       -11.0471923062       -4.2219537414       -0.1249496913
 H       -12.4178976915       -3.3256588287        0.3803855603
 H       -10.8938599852       -3.0351613726        1.1210242466
 H       -10.6737855188       -3.6024906948       -2.4003176937
 H       -10.9131063838       -1.9466401319       -3.0409187438
 H       -12.3468368441       -2.9462657160       -2.3315924559
 H       -14.7367889479        5.0214291508       -2.6402750993
 H       -13.6983466743        4.7885481873       -1.2031489935
 H       -15.0425385726        3.7110964804       -1.4921079602
 H       -14.7030320319        1.8632171156       -3.1798629326
 H       -13.3729154546        1.9066522085       -4.3590587853
 H       -14.6013347943        3.2295960013       -4.4175094848
 H       -12.9441385866        9.7453336765       -4.5975348318
 H       -11.6559286817        9.4454876494       -5.7275312133
 H       -11.7365947442       10.9481080415       -4.9118415043
 H        -9.0700954398       10.1008061287       -2.7715935261
 H       -10.0151250684       11.3047141977       -3.7796781343
 H        -9.1090232378       10.1602019537       -4.6637182295
 Na       -9.4818682336        3.7415968972       -0.0153686489
