117

 C       -12.6066013015        6.1045614606       -9.2070080676
 C       -12.2329245959        6.2331833221       -7.7048126516
 O       -11.9188624440        5.3367759651       -6.9611605799
 C       -12.3066882453        7.7525532987       -7.1292926793
 C       -11.4464320368        7.8798569590       -5.8134799091
 O       -11.9836941457        7.9298323139       -4.7303617150
 C        -9.8944047197        8.2178510134       -6.0276714131
 C        -9.1605892156        8.5082510981       -4.7608000947
 C        -8.3549007052        7.2937584047       -4.2133478630
 O        -7.7939615575        6.5787348279       -5.0081631124
 C        -8.5406082356        6.7662816057       -2.6610450705
 C        -9.8694561809        5.9920245883       -2.6492149767
 O       -10.8152026777        6.2620413566       -1.8941641690
 C        -9.8984976221        4.7732001434       -3.6395229505
 C       -11.0545741531        3.7925886067       -3.3098864613
 C       -10.9850460226        3.3982076104       -1.8117339281
 O        -9.9242601793        3.5802864328       -1.2374050165
 C       -12.1829428171        2.6775790342       -1.1066959241
 C       -12.3192316478        3.2742248836        0.4084568298
 O       -11.9587832811        2.5942193065        1.3126619199
 C       -12.8819044518        4.6952527005        0.6384906346
 C       -12.6279470314        5.1268516133        2.1093564479
 C       -11.1915788694        4.9717877603        2.4773545423
 O       -10.3447096489        4.9552201724        1.6269130830
 C       -10.6960734411        4.8362889884        4.0106209925
 C       -10.1270795359        3.4728027791        4.2074358148
 O        -9.7405336177        2.6642508084        3.3695912644
 C        -9.9249543145        3.1164828147        5.6456018329
 C        -8.7533956092        2.2224939308        5.8482781849
 C        -9.1614026496        0.7478639808        6.1587177027
 O       -10.3538465193        0.4858016620        6.2983278832
 C        -8.0436696441       -0.4428117536        6.3310177246
 C        -7.4665095671       -0.7160104323        4.8274817881
 O        -6.4597956049       -0.2012781075        4.4234233072
 C        -8.3281999443       -1.6580419808        3.9015832719
 C        -8.0726081647       -1.7485800711        2.2969986091
 C        -8.0459094962       -0.3428004416        1.6925187802
 O        -9.0547177558        0.3502243327        1.7923736120
 C        -6.7547965500        0.2479479687        0.9443115453
 C        -6.2941552224        1.6173593501        1.4518193615
 O        -6.9766762626        2.5682619978        1.2690387177
 C        -4.8857355366        1.7855482211        2.0443872843
 C        -5.4828046089       -0.7133620608        0.9661959733
 C        -7.1849269585        0.4810670020       -0.5017383067
 C        -6.8769382101        0.0650312794        7.2486397906
 C        -8.6799818738       -1.8470206541        6.8195197561
 C        -9.5714475808        5.9400176640        4.2081377868
 C       -11.8672796647        5.0792318229        5.1107559297
 C       -13.4648910539        2.8035363178       -1.8677393289
 C       -11.8085176201        1.1789947200       -0.9728123084
 C        -7.3953018986        5.7994227279       -2.3307857184
 C        -8.5666872196        7.9935556646       -1.7152322985
 C       -11.8753297298        8.8717090216       -8.1674942716
 C       -13.8101662535        7.8955912365       -6.7420904435
 H       -12.8332792509        5.0418515288       -9.4933703175
 H       -11.8617800275        6.4580819711       -9.9359051602
 H       -13.4330589117        6.6174883123       -9.5185489705
 H        -9.8280421660        9.1823068248       -6.7092456154
 H        -9.5007292827        7.4258897146       -6.6211880018
 H        -9.8294022588        8.8685904973       -3.9041276252
 H        -8.4210196144        9.2383685166       -4.9870007090
 H        -8.8697711293        4.3212718310       -3.3580253081
 H        -9.8047108823        5.1331656771       -4.6875253365
 H       -10.9487308020        2.9101813787       -3.9896006457
 H       -12.0172523881        4.2868526512       -3.6500580395
 H       -13.9707319088        4.7676699772        0.4144072587
 H       -12.4083601298        5.3866636791       -0.1140493592
 H       -13.2635828968        4.5961301153        2.8671343255
 H       -12.8039048777        6.1945349002        2.0150481447
 H       -10.7997406273        2.4238760240        5.9366930972
 H        -9.6621765153        4.0039664800        6.2712077610
 H        -8.1931286505        2.5246602141        6.7420797380
 H        -8.0203566672        2.0233651972        5.0193704112
 H        -9.2688378339       -1.1928363014        4.0194611791
 H        -8.3178987255       -2.6896849046        4.2184162529
 H        -8.8851402732       -2.3526776049        1.8097018853
 H        -7.0287782098       -2.1874129711        2.2107878719
 H        -4.6328957107        0.9196799569        2.6741837276
 H        -4.6453206729        2.7263312725        2.6530297852
 H        -4.2947752176        1.7992535571        1.1541660778
 H        -5.6641191862       -1.6304011648        0.3607211081
 H        -5.2819899384       -1.0171679888        1.9869284007
 H        -4.6471128583       -0.1547867598        0.6203962640
 H        -7.6716729703       -0.3938498163       -0.9052225712
 H        -6.2794441689        0.8197317549       -1.1096035067
 H        -7.9704387058        1.2673397607       -0.5490878138
 H        -7.3081078766        0.1230708708        8.2940859472
 H        -6.4713603281        1.0191119893        7.0147678308
 H        -6.1603606591       -0.7810881191        7.3507139568
 H        -8.7449864883       -2.0588089458        7.8764646680
 H        -8.0313690942       -2.5717158275        6.4198859488
 H        -9.6518414832       -1.9647559864        6.3711023467
 H       -10.0749136416        6.8711717619        4.2376754193
 H        -8.9147966431        6.0061598240        3.3630939390
 H        -9.0892865459        5.8903249803        5.1966328399
 H       -11.7465047549        4.3118108515        5.8377956566
 H       -12.9239201915        4.9347340034        4.7533475390
 H       -11.7426387229        6.1254578636        5.5484017368
 H       -14.3646398176        2.4628464550       -1.3395768330
 H       -13.3779806402        2.1980816332       -2.7986308790
 H       -13.6316210409        3.7839005897       -2.1108742046
 H       -12.6867348692        0.6003236684       -1.3423417603
 H       -11.5159624624        0.8818504392        0.0523931060
 H       -11.0491733834        0.8442189009       -1.7051724943
 H        -6.4677029902        6.3322379074       -2.0522927549
 H        -7.0980668931        5.1151701108       -3.1113303593
 H        -7.6522789430        5.2425068155       -1.4223468146
 H        -7.6371137135        8.5469190302       -1.8200949857
 H        -8.5053963995        7.5806834766       -0.7342241357
 H        -9.4310352284        8.6430869639       -1.9477758281
 H       -10.8122861255        8.9388212883       -8.3728244512
 H       -12.1835447927        9.8535152852       -7.8587769601
 H       -12.4506255979        8.6288647157       -9.0992592656
 H       -14.5034050163        7.4545372991       -7.4782553582
 H       -14.0653579689        8.9520965761       -6.7360917862
 H       -14.0928722279        7.3922084065       -5.7912345044
 Na       -9.3575149302        2.6826291812        1.0981184434
