117

 C       -11.9968649177       10.8279449083       -1.8903947383
 C       -11.4399494228        9.4846259031       -2.2812454193
 O       -11.4470440939        8.4920516339       -1.5573794934
 C       -10.8105332979        9.3349047818       -3.6829648126
 C       -10.4588361138        7.7869706454       -3.9592784104
 O        -9.3103909132        7.4375064318       -3.9769775813
 C       -11.6079988884        6.7871262762       -4.2269789082
 C       -11.8463942429        5.6751545032       -3.1868740997
 C       -12.4660663039        4.4811898418       -3.8235837981
 O       -12.2885672107        4.1287133211       -4.9634209277
 C       -13.2572191080        3.5577107723       -2.8576013644
 C       -12.1707008713        2.9016910750       -1.8536866728
 O       -11.1321329875        3.5267371497       -1.5325325668
 C       -12.5736659553        1.5837176222       -1.1716948764
 C       -11.7937814161        0.3499310224       -1.7433568206
 C       -12.0142958503       -0.8986927450       -0.8290506609
 O       -12.8980892323       -0.9119801247       -0.0164684022
 C       -11.0002745918       -2.1553094004       -0.8739012881
 C        -9.5849393866       -1.5208682550       -0.6643682478
 O        -8.7737592493       -1.2778776360       -1.5828136724
 C        -9.0697444056       -1.1226583619        0.7596300149
 C        -7.8630008889       -0.2385809029        0.6738871255
 C        -8.0175214948        0.9128461125       -0.1852667702
 O        -9.1178440671        1.5217608918       -0.2162346241
 C        -6.7602519583        1.6700314725       -0.7618804554
 C        -6.4037875641        2.7356282858        0.3523849610
 O        -7.1618258733        3.6608161449        0.6160940456
 C        -5.0284757876        2.5881169065        1.0530351938
 C        -4.9707458794        3.1864521226        2.5021231688
 C        -6.1048673839        2.5058353657        3.3330578186
 O        -6.9902303970        1.8477503054        2.8803159361
 C        -6.2658411125        2.8749744545        4.8842985395
 C        -7.2415716047        4.1665475833        4.6289441255
 O        -6.8828634746        5.1865117482        4.1085783041
 C        -8.7459779251        4.1105956903        4.9640217093
 C        -9.4690290026        5.3443897666        4.3670670581
 C        -9.8175346417        5.2474050307        2.8402542532
 O        -9.9007779266        4.1501935171        2.3434055820
 C       -10.2458038991        6.5655740709        2.0962372218
 C        -9.1542560965        6.8727544656        0.9682144708
 O        -8.9337758787        6.0702737945        0.0900785603
 C        -8.2702978395        8.1921011855        0.9680770186
 C       -11.5005212193        6.2418333431        1.2179014978
 C       -10.5421954710        7.7912374267        2.9806574976
 C        -6.9555580703        1.6729955437        5.6242275374
 C        -4.9277605673        3.3132151360        5.4999181004
 C        -5.6365369133        0.6738688121       -1.0434236746
 C        -7.1252174917        2.4343955747       -2.0543964382
 C       -11.4449430051       -3.1496670078        0.2703910117
 C       -11.3497980943       -2.8461511291       -2.2801066239
 C       -14.3026356340        4.3937609374       -1.9960229635
 C       -14.0381676457        2.3887139846       -3.5895727911
 C       -11.8336415264        9.8450591418       -4.7901688087
 C        -9.5417531577       10.2138290401       -3.7289188629
 H       -12.8320396386       10.7059001508       -1.1757972195
 H       -12.2466101025       11.4779374581       -2.7238734235
 H       -11.2962255719       11.4085881161       -1.3130451456
 H       -11.3318041635        6.3461073133       -5.2006062080
 H       -12.4448040744        7.3312316340       -4.4527322210
 H       -12.3651283640        6.0776444207       -2.3508043840
 H       -10.8537786781        5.2865917167       -2.8390010314
 H       -13.6901681786        1.3881597411       -1.3422588609
 H       -12.3585823862        1.6093886245       -0.0940093116
 H       -10.6973074473        0.4371944593       -1.6541408429
 H       -12.1621398352        0.1323537953       -2.6983878815
 H        -8.7016159104       -1.9701556512        1.3739763175
 H        -9.9245661218       -0.7683690190        1.4288569238
 H        -7.0871351019       -0.9305058110        0.2793324150
 H        -7.5083399443        0.0541106382        1.6242912275
 H        -4.3612442916        3.2239331412        0.4616325538
 H        -4.7300643825        1.5192229623        1.1973583582
 H        -5.1230129382        4.2794989832        2.4060624664
 H        -4.0532636760        3.0044169322        2.9823714128
 H        -8.7230897828        4.0569309320        6.0838461695
 H        -9.1666495554        3.1564004172        4.6594922299
 H        -8.9217667083        6.2662387040        4.5856384859
 H       -10.3924557106        5.4657281990        4.9082765203
 H        -8.8236742461        9.1739888442        0.8793034834
 H        -7.4946600943        8.0999309447        0.1688074448
 H        -7.7183866173        8.3141582291        1.8819049246
 H       -11.4278156854        5.1848276671        0.7813161442
 H       -11.5103973395        6.9024183288        0.3963550548
 H       -12.4395023141        6.3996046248        1.8147883659
 H       -11.2831866635        8.4827110077        2.4808962256
 H        -9.5952252370        8.3306914180        3.2065068704
 H       -11.1583959522        7.4970009734        3.8646324814
 H        -6.1651282808        1.0935907459        6.1669137058
 H        -7.5250137484        1.0202909114        4.9092891505
 H        -7.6273951142        1.9854106173        6.4593900440
 H        -5.0095703571        3.1334157013        6.6408961505
 H        -4.7894637518        4.3898414131        5.3215538993
 H        -4.1654630961        2.6582036272        5.1829087282
 H        -5.6060817820       -0.1375162418       -0.3177479876
 H        -4.6491786585        1.1328007212       -1.1913969000
 H        -5.8626131193        0.2128610862       -1.9159423688
 H        -6.4779270417        3.3313251969       -2.1177110414
 H        -8.1350593904        2.8122855111       -2.1434209103
 H        -6.9478755370        1.7458531872       -2.8891296640
 H       -11.2224900853       -4.1212944417       -0.0442802340
 H       -12.5894106856       -3.1688295242        0.3270369396
 H       -11.0865335877       -3.0374960239        1.2579121181
 H       -10.9570771502       -3.8585975735       -2.3452474498
 H       -10.9767228339       -2.2510342472       -3.1182177611
 H       -12.4680112508       -2.9461858266       -2.3005654247
 H       -14.8325612246        5.0988172243       -2.6265430826
 H       -13.6917739591        4.9341416544       -1.3006833713
 H       -14.9923988601        3.8019061958       -1.4204670682
 H       -14.7831374650        1.9854293187       -2.9653893328
 H       -13.3293103788        1.6199810800       -3.7657959074
 H       -14.4087347047        2.8432497338       -4.5349604578
 H       -12.8248945589        9.7865332925       -4.4079519691
 H       -11.7667921831        9.3172582320       -5.7216867878
 H       -11.6889123061       10.8986297936       -5.0096596330
 H        -8.9801325449       10.0502557249       -2.8145162537
 H        -9.8192073077       11.2926431791       -3.8685652153
 H        -8.9853295596       10.0277496376       -4.6717384575
 Na       -9.3811757089        3.7295601661        0.0828885564
