117

 C       -11.9918671973       10.8280992687       -1.8417841346
 C       -11.3806634504        9.5135786810       -2.3322865032
 O       -11.5177488060        8.5192242588       -1.6107178718
 C       -10.7283518720        9.2991649405       -3.7465014456
 C       -10.4265750957        7.7502648761       -4.0339552696
 O        -9.2989837610        7.3297689539       -4.0162630327
 C       -11.5886355237        6.8007515826       -4.3518823750
 C       -11.8258672966        5.7888281092       -3.2386376019
 C       -12.4489962234        4.4830727779       -3.8154642190
 O       -12.3810907299        4.2041306746       -5.0026589786
 C       -13.1423573204        3.5457995270       -2.7594003812
 C       -12.1659747448        2.9075001594       -1.7803575834
 O       -11.1148584469        3.4930854499       -1.5191551575
 C       -12.4321233058        1.5960959707       -1.1384713171
 C       -11.8301304654        0.3492107799       -1.7761197753
 C       -12.0583555844       -0.8587795271       -0.7582111630
 O       -12.9526006244       -0.8578972311        0.0299442301
 C       -11.0890176993       -2.0805214507       -0.8770582316
 C        -9.5872289304       -1.5344407179       -0.6877468879
 O        -8.8616524523       -1.3785657916       -1.6502938545
 C        -9.1478130544       -1.2461985515        0.7456937357
 C        -7.8476753809       -0.3714093232        0.7629326667
 C        -8.0441363003        0.9765082546       -0.0447521674
 O        -9.1517583234        1.4550354959       -0.2493547611
 C        -6.7758595176        1.6289866845       -0.6904351892
 C        -6.3702060800        2.7103241680        0.3876629981
 O        -7.1465147417        3.5606200050        0.7285970506
 C        -5.0485289197        2.5852781704        1.0712434958
 C        -5.1052873244        3.2535526241        2.4491565107
 C        -6.1417017382        2.5421032113        3.3197952942
 O        -6.9548469557        1.7909640500        2.8038000530
 C        -6.2788240254        2.9719449877        4.8433641613
 C        -7.2222456810        4.2263648235        4.5185586129
 O        -6.7042491564        5.1409453677        3.9023101921
 C        -8.7664550566        4.1628930294        4.8559624713
 C        -9.5246480115        5.3747022784        4.3683831509
 C        -9.9043914858        5.3322307394        2.8948899291
 O        -9.9463473953        4.2408855399        2.3743432514
 C       -10.2390640505        6.6192235176        2.0504803811
 C        -9.1314062428        6.8284827925        1.0194758005
 O        -8.7985968120        5.9886861752        0.1813511383
 C        -8.4369176633        8.1935042164        1.0760610283
 C       -11.6696980273        6.2522520466        1.2382250455
 C       -10.5045295257        7.8007524197        2.9151917426
 C        -6.9921934220        1.8966310952        5.6320457689
 C        -4.8924761499        3.2664422750        5.3944841647
 C        -5.6304189683        0.6061403796       -1.0668094064
 C        -7.2533983452        2.3357113039       -2.0006749299
 C       -11.3996660581       -2.9822123640        0.2548316093
 C       -11.2173615426       -2.8551369179       -2.2086659589
 C       -14.2194186622        4.3946117442       -1.9597633279
 C       -13.9545013698        2.3756203115       -3.4529768028
 C       -11.7866450207        9.7753780430       -4.7994239646
 C        -9.4069767182       10.1386587127       -3.7541590678
 H       -12.7768195699       10.7428085410       -1.0301853057
 H       -12.2807888185       11.4521497569       -2.6534196211
 H       -11.2359853514       11.3977925073       -1.3585998082
 H       -11.4105389941        6.3463121437       -5.2915825618
 H       -12.4731456856        7.4617975175       -4.5447889759
 H       -12.3921076347        6.2883937083       -2.4466779345
 H       -10.8432596952        5.5046505683       -2.8567485920
 H       -13.5526115965        1.4147124672       -1.1207777691
 H       -12.0441623037        1.5856599737       -0.0609033637
 H       -10.7597199737        0.3224232283       -1.9223223569
 H       -12.4760223943        0.0717012631       -2.6571063144
 H        -9.0645750752       -2.0885399659        1.4353808767
 H        -9.9813697732       -0.6657196362        1.1805794796
 H        -6.9976709431       -1.0053133926        0.4251395042
 H        -7.6184022052       -0.1528702919        1.7983043265
 H        -4.3198182437        3.1424003002        0.4870415195
 H        -4.8087497240        1.5394009704        1.2944655103
 H        -5.3741818657        4.2782006490        2.2905985781
 H        -4.1473579830        3.1874192478        2.9561706814
 H        -8.8255784471        3.9023371435        5.8840108805
 H        -9.1380113994        3.2980152209        4.3281094090
 H        -8.9589491142        6.3393905798        4.5348960547
 H       -10.4106174379        5.5192615348        5.0485525303
 H        -9.2264972284        8.9532386406        1.0108473114
 H        -7.8129650195        8.2962628863        0.2064253223
 H        -7.7830972708        8.5025056098        1.9530376024
 H       -11.7061322674        5.1787468352        1.1334737065
 H       -11.6975371192        6.6831859998        0.2220004477
 H       -12.5111222910        6.6602708734        1.7486314124
 H       -11.1105257160        8.5458088352        2.3711367692
 H        -9.5869646536        8.2178315873        3.2712881507
 H       -11.2348296567        7.5082656142        3.7503484399
 H        -6.2006887651        1.2683978510        6.1013438879
 H        -7.6654633133        1.2434432144        4.9748837846
 H        -7.5705995048        2.2700302699        6.4927715736
 H        -5.0008490549        3.3916324926        6.4759034775
 H        -4.4222997286        4.1775451244        4.9688280718
 H        -4.3720678819        2.2895698340        5.2705163143
 H        -5.3537318218       -0.0461532980       -0.2216515286
 H        -4.8212397096        1.1506827749       -1.4759287603
 H        -5.9984668049       -0.1829672391       -1.7873288246
 H        -6.6208228651        3.1665380488       -2.2303206227
 H        -8.2648668472        2.7052269882       -1.9927531366
 H        -7.2400454289        1.5464429182       -2.7878837769
 H       -10.9556457486       -3.9664352962        0.1246830100
 H       -12.5018291642       -3.1797906562        0.2914047371
 H       -11.1983128591       -2.5918708843        1.2548891290
 H       -10.7206569231       -3.8300932373       -2.0581069286
 H       -10.7473538980       -2.3279192579       -2.9969198582
 H       -12.2332357482       -3.0899264438       -2.4264520032
 H       -14.8779162512        4.8840419223       -2.7347102824
 H       -13.7847282631        5.1286865600       -1.3545738494
 H       -14.8645784295        3.7049006722       -1.3937779941
 H       -14.8362561876        2.0238033437       -2.9074830115
 H       -13.2582477256        1.5719421241       -3.4809090550
 H       -14.1750327672        2.7285987102       -4.4235903562
 H       -12.7625812889        9.5483394304       -4.3880772836
 H       -11.6669123437        9.2548781464       -5.7928850226
 H       -11.7995795008       10.8210765871       -4.9855432485
 H        -8.8569633011        9.6831171769       -2.9559212149
 H        -9.4604318136       11.1899851866       -3.7224837016
 H        -8.8886960662        9.9188177874       -4.7179188718
 Na       -9.3687191144        3.7921757771        0.1411611169
