117

 C       -11.8696236435       10.8021816507       -1.9168385751
 C       -11.4149859123        9.3737366451       -2.3660217457
 O       -11.5686805829        8.4800430537       -1.5823641902
 C       -10.7089345024        9.2154215888       -3.7568530002
 C       -10.4098831469        7.7939053178       -4.0525792471
 O        -9.2917379849        7.3157665296       -4.0087477374
 C       -11.6010971875        6.8563507613       -4.4807770051
 C       -11.7302950497        5.8425444272       -3.3411178837
 C       -12.4288055068        4.4988722624       -3.7675141322
 O       -12.5229429441        4.2447661598       -4.9480014781
 C       -13.1030434243        3.4964231172       -2.7143564304
 C       -12.0469263761        2.9490191274       -1.6943712202
 O       -11.0667519325        3.6020191181       -1.4964493057
 C       -12.3768330334        1.5953025506       -0.9514746680
 C       -11.8961401373        0.3592112670       -1.7336520660
 C       -12.0724382784       -0.8758623918       -0.7954921364
 O       -12.9607486210       -0.7465840325        0.0269008070
 C       -11.1133293280       -2.1358919605       -0.8087383477
 C        -9.6162045228       -1.5490482327       -0.7187372133
 O        -8.9427236306       -1.4601903949       -1.7004872015
 C        -9.2676366917       -1.2591061154        0.7091655757
 C        -7.9065053413       -0.4681234181        0.7703828356
 C        -8.0623626592        0.8471014540       -0.0683355085
 O        -9.1815605762        1.2842967285       -0.0895840880
 C        -6.8305773516        1.5493776347       -0.6706675471
 C        -6.3563824133        2.6103957026        0.4080322674
 O        -7.1202127844        3.5054075015        0.7076723502
 C        -4.9382258472        2.5837831123        1.0519900538
 C        -5.1339567009        3.2244993686        2.4208586702
 C        -6.1852265426        2.5148211562        3.2547133200
 O        -6.9042022418        1.6166184111        2.7633106429
 C        -6.3011232040        2.9932776992        4.7398425332
 C        -7.1663704563        4.3511615283        4.4513104013
 O        -6.6519156848        5.2564745497        3.8099978485
 C        -8.6688726673        4.2804568159        4.7298666080
 C        -9.4828249121        5.4758528364        4.3323321966
 C        -9.9965363113        5.3326689186        2.9020563875
 O        -9.9758547939        4.2103633519        2.3686558510
 C       -10.3563667905        6.6034373416        2.1324339254
 C        -9.1494992612        6.8384943927        1.0034936530
 O        -8.6713946570        5.9896182928        0.2822871675
 C        -8.5649951224        8.1751144213        1.0532093841
 C       -11.6494371063        6.2783955219        1.2788620510
 C       -10.5898195276        7.8639974281        2.9765242891
 C        -7.0918611268        2.0387929279        5.6370482732
 C        -4.9407191418        3.3700660602        5.3566293990
 C        -5.6766387687        0.6507959210       -1.0528728679
 C        -7.2950098153        2.2795382606       -1.9654907060
 C       -11.4381508516       -3.0215710188        0.3888518036
 C       -11.0805867817       -2.7597848641       -2.1775126435
 C       -14.1387127397        4.3452115145       -1.8916109043
 C       -13.9124857185        2.4154105933       -3.5380010204
 C       -11.6536318096        9.8260672477       -4.8504311813
 C        -9.3434977201       10.0213760143       -3.8473154353
 H       -12.5261314742       10.7980249865       -1.0998987471
 H       -12.2285164486       11.4146491168       -2.7473512403
 H       -11.0146323814       11.4035714796       -1.5295829942
 H       -11.3568633805        6.4093372892       -5.4466433678
 H       -12.5708339551        7.4435057381       -4.6915277647
 H       -12.4092488309        6.3564247250       -2.6082766593
 H       -10.7496310936        5.7276562296       -2.9023576318
 H       -13.4160826467        1.5607785661       -0.6575240047
 H       -11.7146646571        1.5138091694       -0.0447854711
 H       -10.7975634889        0.4019627594       -1.7826342051
 H       -12.4866965558        0.1088694851       -2.6878992434
 H        -9.1422023621       -2.2495938424        1.1809961344
 H       -10.0373990012       -0.7774254086        1.2345216764
 H        -7.1030677445       -1.1366716628        0.5450997992
 H        -7.7338840978       -0.1304742551        1.8491038081
 H        -4.2126975833        3.1380280428        0.4605502377
 H        -4.6730670039        1.6084956901        1.3253777103
 H        -5.5256885725        4.2096157325        2.2374186955
 H        -4.1819049964        3.2939678534        3.0178634488
 H        -8.7609222557        3.9119336963        5.7101798092
 H        -9.0044481033        3.4552396082        4.0932791846
 H        -9.0208000084        6.4756187915        4.5286100083
 H       -10.3415496176        5.4817603986        5.0923408598
 H        -9.3125093064        8.9268267060        1.0630149416
 H        -7.8714768223        8.3565410731        0.2402734533
 H        -7.9612673768        8.3021434680        1.9825111510
 H       -11.7573063618        5.2632181768        1.1462356585
 H       -11.6415670777        6.7942368616        0.2842104634
 H       -12.4988033567        6.7289445706        1.7328948337
 H       -10.6944095988        8.7293154093        2.3693419309
 H        -9.6562387476        7.9160277775        3.5402832342
 H       -11.4358780600        7.8774942547        3.6098754491
 H        -6.4096147385        1.2239416815        5.8967689992
 H        -8.0048063908        1.6212569288        5.2561588240
 H        -7.2831667191        2.5624175882        6.5910161062
 H        -5.1280958894        3.8332143211        6.2807760127
 H        -4.3902372038        4.0888076167        4.7541201580
 H        -4.4442752503        2.3701260104        5.5395988075
 H        -5.0557832763        0.3641513543       -0.2109710546
 H        -5.1255907597        1.1890068778       -1.8281373926
 H        -5.9970683391       -0.4308417140       -1.3362485980
 H        -6.5503827040        2.9369945260       -2.3914854330
 H        -8.1659945672        2.8879877606       -1.6907955334
 H        -7.6899296626        1.5647928227       -2.6482851146
 H       -10.6462063395       -3.7974331273        0.6889941896
 H       -12.2850030972       -3.6157779318        0.2587214239
 H       -11.7289438055       -2.3552859667        1.2503390267
 H       -10.4916510464       -3.6445123131       -2.0920409580
 H       -10.6878461601       -2.0829679265       -2.9189065754
 H       -12.0347479055       -3.1002632447       -2.4625356429
 H       -14.9083363968        4.7073187821       -2.5644799471
 H       -13.6123864726        5.2365142523       -1.4316297140
 H       -14.6588470916        3.6832217249       -1.1797733813
 H       -14.7257378396        1.9368355946       -2.9455678874
 H       -13.1722161295        1.6374479655       -3.7912946731
 H       -14.2877681362        2.9299432867       -4.3826164261
 H       -12.6913406211        9.4240849200       -4.7514472821
 H       -11.2414114757        9.5346275077       -5.8240243996
 H       -11.7434424963       10.9237002032       -4.8302234327
 H        -8.6904510980        9.4115506481       -3.2301989687
 H        -9.3375649023       11.0570167533       -3.6501799765
 H        -8.9918771913        9.9214740767       -4.8338999077
 Na       -9.4430006483        3.8148873275        0.1547555771
