117

 C       -11.6203630292       10.7402737336       -1.9855994131
 C       -11.3702938934        9.4257223990       -2.5585131218
 O       -11.5133408972        8.4191169107       -1.8320058540
 C       -10.6174001295        9.2339461368       -3.9294056971
 C       -10.3756326398        7.6996606451       -4.1401154140
 O        -9.2722917731        7.2208059092       -4.0178756081
 C       -11.4874803690        6.7140304348       -4.5105116928
 C       -11.6683484246        5.6996914281       -3.3737023555
 C       -12.4733140695        4.5244434031       -3.8303904326
 O       -12.7501346595        4.3252839623       -4.9855680695
 C       -13.0902340441        3.5064057412       -2.6658765248
 C       -11.9489762406        3.0777629279       -1.7595078451
 O       -11.0221735723        3.8948294034       -1.4821754196
 C       -12.1216424841        1.7682170009       -0.9220874044
 C       -11.7716350472        0.3575242238       -1.6007505717
 C       -12.1173452550       -0.8508772403       -0.6594934763
 O       -13.0011281419       -0.7797347290        0.1155122864
 C       -11.1911594619       -2.1396240580       -0.7916646147
 C        -9.7330716189       -1.6954964572       -0.5560880726
 O        -8.9776149057       -1.3557552038       -1.4708453072
 C        -9.1603915684       -1.4630667321        0.9035783185
 C        -7.8787468262       -0.6587835418        0.7227899209
 C        -8.0357122901        0.6971863475        0.0697181766
 O        -9.0754296156        1.3317653747        0.1941680684
 C        -6.8949635060        1.4677387526       -0.6845599687
 C        -6.4027725797        2.6134268230        0.2948537850
 O        -7.2175654530        3.4609015908        0.5392574100
 C        -4.9853157254        2.5183972379        0.8934152168
 C        -4.9121939940        3.0251505802        2.3545477294
 C        -5.9993118134        2.4331908887        3.2583202514
 O        -6.5332659514        1.3807359404        3.0023024352
 C        -6.3232528639        3.1730827398        4.5981340662
 C        -7.2135812514        4.4594445667        4.3698817597
 O        -6.6798510565        5.4307298764        3.8940626891
 C        -8.7073406939        4.5056842779        4.7884057290
 C        -9.4339667265        5.7241946243        4.2084220383
 C       -10.0373496775        5.3989037044        2.8544922972
 O       -10.1561792516        4.2793149019        2.4020990545
 C       -10.4460331307        6.6769699453        2.0917802098
 C        -9.2174964773        6.9368855958        1.1435611246
 O        -8.7558002438        6.0087885782        0.4844522510
 C        -8.5858484693        8.3319668250        0.9327867221
 C       -11.6249318563        6.4007701552        1.1171529058
 C       -10.7962810679        7.8958772224        3.0651372341
 C        -7.0622163771        2.1913972830        5.4717807805
 C        -5.0684918673        3.7366967335        5.3799382018
 C        -5.8680144981        0.3719996302       -1.1926827372
 C        -7.4507472416        2.1777009939       -1.9570323091
 C       -11.6728486727       -3.1845988627        0.1667976453
 C       -11.4379462344       -2.7809680449       -2.1912331248
 C       -14.0413611847        4.2421738471       -1.6588340082
 C       -13.8066173747        2.3536295865       -3.4593489797
 C       -11.4788997438        9.9748021334       -4.9877443683
 C        -9.2325614947        9.9529305295       -3.7382778102
 H       -11.8989929174       10.6232051046       -0.8799460389
 H       -12.3251114001       11.3622418758       -2.5091524176
 H       -10.7391890311       11.3264079718       -1.9378212416
 H       -11.3139255277        6.1651398918       -5.4500556205
 H       -12.3447542353        7.3283584608       -4.6676937815
 H       -12.1502486013        6.1482859213       -2.5163435443
 H       -10.6545694810        5.3335600209       -3.0771207826
 H       -13.1195324531        1.8864431305       -0.4852302149
 H       -11.4315199478        1.7827879524       -0.1138351148
 H       -10.6994926426        0.3155224738       -1.7473705380
 H       -12.2851045783        0.1275603177       -2.4741086184
 H        -8.9584773988       -2.4339117191        1.3830813914
 H        -9.7852354949       -0.7844257701        1.5757266413
 H        -7.2004277415       -1.2157475320        0.0297214629
 H        -7.3661133470       -0.5083222224        1.6294776537
 H        -4.3707396014        3.1933034815        0.2869094001
 H        -4.5248180180        1.4970240347        0.9485308743
 H        -4.9614094975        4.1465130510        2.3549044255
 H        -3.9729821340        2.6974133098        2.7571264628
 H        -8.6956394737        4.3922260349        5.9162241311
 H        -9.0987012698        3.5639793775        4.3587124285
 H        -8.8296533465        6.6117280415        4.1332701389
 H       -10.1651609634        6.0872136335        4.8646890536
 H        -9.2536399552        9.0215860215        0.3906132938
 H        -7.6810888108        8.2215416345        0.3826991305
 H        -8.2735965234        8.8150309539        1.8478594392
 H       -11.1979973480        5.6394277288        0.3891261585
 H       -11.9769240851        7.2942126759        0.6442296521
 H       -12.5524337050        6.0107003959        1.5722649281
 H       -11.3564241921        8.6248681069        2.4713349456
 H       -10.0611709393        8.3000464636        3.6969625735
 H       -11.5134872211        7.4107743496        3.8064993964
 H        -6.6509685183        1.2190182194        5.3626606738
 H        -8.0992965210        2.0540672726        5.1386523366
 H        -7.1177835224        2.5427877999        6.4542455848
 H        -5.4754828726        4.1940313076        6.3030074454
 H        -4.5839092586        4.5202188615        4.8298229772
 H        -4.4450363774        2.9132446066        5.5234188593
 H        -5.5831043233       -0.2737992982       -0.3701860709
 H        -5.0273792372        0.8412106843       -1.6513158744
 H        -6.3382891597       -0.3451486612       -1.8018547234
 H        -6.6080979676        2.2341580907       -2.6561172199
 H        -7.8525616876        3.1606809645       -1.7658037755
 H        -8.2870837061        1.6215964758       -2.4448535961
 H       -10.9927150782       -3.5146289107        0.8614434773
 H       -11.9037472247       -4.1690588581       -0.3454280342
 H       -12.5681915901       -2.9021339355        0.6542465508
 H       -10.6702976837       -3.5315622583       -2.5005278755
 H       -11.5938487282       -1.9811228621       -2.9124810126
 H       -12.3871238666       -3.3653454801       -2.1654010366
 H       -14.9574409738        4.6389800828       -2.1574418433
 H       -13.5408842349        5.0064809166       -1.1740391270
 H       -14.4428036809        3.4722166379       -1.0041701349
 H       -13.8318418851        1.4860309375       -2.7969606856
 H       -13.2887351468        2.1266720716       -4.3926383613
 H       -14.8761748911        2.6614424202       -3.5682257990
 H       -12.3948028352        9.4133267624       -5.0663139583
 H       -10.9961699791        9.9852363630       -5.9814855898
 H       -11.7503674822       10.9949765286       -4.7397730717
 H        -8.5951779351        9.3251602657       -3.1341153054
 H        -9.4416263739       10.9464732303       -3.3083040202
 H        -8.6248502067       10.1319625547       -4.6859617955
 Na       -9.4975823505        3.6080473741        0.2416538711
