117

 C       -11.5676292518       10.6898410556       -2.0223756320
 C       -11.2198318015        9.3207531242       -2.5896395569
 O       -11.5922681129        8.3714400332       -1.9518905681
 C       -10.4294157859        9.2843095282       -3.9239490492
 C       -10.2700582614        7.7382161815       -4.1417635753
 O        -9.1571816339        7.2477831115       -4.1154605095
 C       -11.5713932878        6.8687871427       -4.4310607123
 C       -11.6172908169        5.6374910961       -3.4816406692
 C       -12.5754243634        4.4638248386       -3.8499309220
 O       -13.0432183842        4.2916130661       -4.9391844669
 C       -13.0451721276        3.4629032161       -2.6446398171
 C       -11.9097038109        3.0310072346       -1.6514963445
 O       -10.9339186232        3.6904695120       -1.4295613618
 C       -12.0243842167        1.6912109233       -0.8193224244
 C       -11.5561794292        0.3920280856       -1.3891162312
 C       -12.0724948020       -0.7567616137       -0.5941726987
 O       -13.0075945968       -0.6171291381        0.1877237911
 C       -11.2609263030       -2.0642979222       -0.7584286030
 C        -9.7948516070       -1.7957912492       -0.5627754677
 O        -9.2786481191       -1.4149892118       -1.5923042466
 C        -9.2035117805       -1.5755585516        0.8263919790
 C        -7.9086316626       -0.8003352002        0.8299774086
 C        -8.1399275394        0.6267290723        0.2561373654
 O        -9.1030869543        1.2663653819        0.5566640881
 C        -6.9694260054        1.3030525893       -0.6853995853
 C        -6.4010078002        2.4021951117        0.2366401162
 O        -7.0431576989        3.4134287436        0.5615550697
 C        -4.9520127752        2.3022043065        0.8778781870
 C        -4.8872868269        3.1305855752        2.2301977230
 C        -5.8226498267        2.4700376347        3.2346563760
 O        -6.1780570095        1.3156618822        3.1244263326
 C        -6.3049634780        3.2267876394        4.5786338983
 C        -7.2111419678        4.4507309620        4.2987822316
 O        -6.7883983450        5.4520373300        3.7899093606
 C        -8.7429578945        4.5576415861        4.8060665793
 C        -9.4269712082        5.8016574248        4.2893678573
 C       -10.0924403073        5.5486420800        2.8973126419
 O       -10.3113825940        4.4066588109        2.5067550317
 C       -10.5613798156        6.7494412359        1.8966677675
 C        -9.2706181814        7.0202253301        1.0377281064
 O        -8.8138839812        6.0691223219        0.4656192718
 C        -8.7259725955        8.3842643453        0.9278718149
 C       -11.7088119485        6.3923362116        0.9540833529
 C       -10.9978494819        8.0485410114        2.7447896759
 C        -6.9135809776        2.2152912825        5.5656347003
 C        -5.0143751484        3.7521465620        5.2961094316
 C        -5.8252338731        0.4444117325       -1.1987620550
 C        -7.6967788346        1.9085285394       -1.9627930859
 C       -11.7649905670       -3.1730584919        0.1746102592
 C       -11.5037290766       -2.4900673039       -2.2422761794
 C       -14.0429157183        4.3179356278       -1.7707524637
 C       -13.8318723404        2.2810418460       -3.2607687801
 C       -11.1978266448        9.8593616394       -5.1221164984
 C        -9.0208192247        9.9664129756       -3.8862262594
 H       -11.6400068791       10.5869242464       -1.0028335058
 H       -12.5282616763       11.0881871936       -2.3919230985
 H       -10.8379662836       11.5201684771       -2.1936100901
 H       -11.2996284749        6.5321556388       -5.4425503299
 H       -12.5537212081        7.3995283399       -4.4820573415
 H       -11.9651470713        6.0884082431       -2.5375620792
 H       -10.6441637113        5.2171350960       -3.3106012373
 H       -13.0926751016        1.6325914222       -0.4877500613
 H       -11.4755213010        1.9578022394        0.1603262954
 H       -10.4570031940        0.2079692475       -1.4713813130
 H       -11.9543529741        0.2972092464       -2.4700372202
 H        -8.9894258090       -2.5592966335        1.2847229171
 H        -9.9465214026       -1.0234258944        1.3572256998
 H        -7.1688983779       -1.3538382335        0.3031205265
 H        -7.5566161894       -0.6426524925        1.9016617200
 H        -4.1614548813        2.6825265360        0.1695331227
 H        -4.7102002934        1.2976177316        1.1619403649
 H        -5.2587791841        4.1026961084        2.0249653247
 H        -3.8521510180        3.2196566922        2.6088770132
 H        -8.6489332907        4.6531928729        5.8519460618
 H        -9.2545499845        3.6398741732        4.5776915913
 H        -8.7976480355        6.7120221548        4.3484045494
 H       -10.2024285813        6.1347628854        5.0607965594
 H        -9.3215040263        8.9285969608        0.1790426294
 H        -7.6413660496        8.3953270336        0.6091449268
 H        -8.7412776700        8.9258200670        1.8672332863
 H       -11.4333516551        5.8948293932        0.0506243270
 H       -12.3535061062        7.2733792516        0.8263594271
 H       -12.3813198450        5.6827700645        1.4682456571
 H       -11.2444421410        8.7755913937        1.9507546531
 H       -10.1173126525        8.4393511696        3.3850056080
 H       -11.7486526312        7.9015741441        3.4900790840
 H        -6.1466412532        1.5706429632        6.0581387448
 H        -7.4607128354        1.4776388749        4.9854937823
 H        -7.7059735770        2.7201730630        6.1999859855
 H        -5.3893690328        4.1475130833        6.2349888981
 H        -4.6716154809        4.6000100466        4.6732237614
 H        -4.2084647795        2.9749841000        5.2870272687
 H        -5.2421422167       -0.1714051445       -0.5037140167
 H        -5.0915853314        1.1439295949       -1.7252274236
 H        -6.2870798326       -0.2285965657       -1.9104654416
 H        -6.9743560293        2.2369809486       -2.7259005891
 H        -8.4094775169        2.6899679790       -1.6296515412
 H        -8.3166331401        1.1843367465       -2.4463060933
 H       -11.6094891643       -2.8711981966        1.2516872687
 H       -11.3153639829       -4.1230494310        0.1192175942
 H       -12.8454948478       -3.3105771176        0.0714775569
 H       -11.2061326479       -3.5030810321       -2.3676551749
 H       -10.9536266425       -1.7951403060       -2.9027964028
 H       -12.5577119713       -2.4244453580       -2.5161187320
 H       -14.7891446224        4.7233975906       -2.3668270381
 H       -13.5061834652        5.1589766082       -1.2217154645
 H       -14.5529865276        3.6531478253       -1.1068733979
 H       -14.2184920541        1.6634346530       -2.4761222650
 H       -13.2739109553        1.7504473463       -4.0326205318
 H       -14.7276518067        2.6761798000       -3.7213085495
 H       -12.2288613130        9.5142022210       -5.2365491867
 H       -10.7141085161        9.7391433911       -6.0532279280
 H       -11.1598316914       10.9256800711       -4.8996562851
 H        -8.3873409273        9.7369769292       -2.9981345009
 H        -9.1240135985       11.0520635457       -4.0744689119
 H        -8.4866207866        9.5227418870       -4.6870212549
 Na       -9.4584925453        3.7004402524        0.3976620092
