117

 C       -11.4537226914       10.8124333395       -2.2642599738
 C       -11.1503520806        9.4043938567       -2.7195966246
 O       -11.5484859164        8.5018466994       -1.9622386936
 C       -10.3371083802        9.1409994196       -4.0115884585
 C       -10.2236588575        7.5259685440       -4.2109673410
 O        -9.1589876587        6.9884793299       -4.3104739601
 C       -11.4957022505        6.7212993235       -4.3561080694
 C       -11.3624823917        5.4706152456       -3.4574028581
 C       -12.4758721888        4.4693134884       -3.7234887505
 O       -13.0776953802        4.4459612117       -4.7853769956
 C       -13.0363239418        3.5839687778       -2.6239581642
 C       -11.9354570122        3.1325063633       -1.5275819600
 O       -10.7861389106        3.6469659609       -1.4801689971
 C       -12.3889243519        2.0133941616       -0.6341067081
 C       -11.6878703546        0.7507323355       -1.2450147130
 C       -12.1400566225       -0.6060221461       -0.5604879293
 O       -12.9146665743       -0.5705417479        0.3680220904
 C       -11.2769347127       -2.0486441737       -0.9163972790
 C        -9.7743586876       -1.7507563893       -0.7232946918
 O        -8.9960692157       -1.4950259242       -1.6162549010
 C        -9.2929632260       -1.7337751926        0.7809368365
 C        -7.8696901848       -0.9743880878        0.8613620601
 C        -8.0531920439        0.5258296738        0.4578533370
 O        -9.0064629056        1.1909512280        0.8926695018
 C        -7.0325111538        1.1762975193       -0.5776770979
 C        -6.4728685649        2.4372532303        0.3232285678
 O        -7.1423054230        3.4085256421        0.4448199096
 C        -5.1333170271        2.4029626116        0.9283934107
 C        -5.1331412197        3.2517266513        2.2041698857
 C        -5.8229681017        2.5021412405        3.3912833195
 O        -6.1013076864        1.2929915598        3.2832574069
 C        -6.2671199022        3.3338644644        4.6062058044
 C        -7.2064899921        4.5249549311        4.0908773094
 O        -6.7042517687        5.3931958566        3.3691306855
 C        -8.6094605087        4.5384353985        4.6110154622
 C        -9.4330601526        5.7831393131        4.2035305733
 C       -10.1595699436        5.5679522324        2.8618985483
 O       -10.4171411272        4.4470958975        2.4639152263
 C       -10.5705865914        6.7758961227        1.9131919339
 C        -9.2863738233        6.9951178479        0.9755033937
 O        -8.8296520656        6.0913864000        0.2698961456
 C        -8.7438240166        8.4224446837        0.8000836115
 C       -11.7700789939        6.1619098802        1.0551379640
 C       -11.0787708550        7.9909861146        2.5847373371
 C        -6.9182702539        2.2787043869        5.6242413833
 C        -4.9154652404        3.9419969447        5.1125160723
 C        -5.9402605428        0.1668673009       -1.0734469625
 C        -7.9067315134        1.7935152855       -1.6764512786
 C       -11.8581186797       -2.9399093606        0.1622946568
 C       -11.7257018445       -2.6013912148       -2.3070987812
 C       -13.9978292395        4.4359634458       -1.7603335134
 C       -13.7691639138        2.3103506445       -3.1540720667
 C       -11.2163726826        9.7782134115       -5.1253781246
 C        -8.9532013778        9.6918710428       -3.7625736352
 H       -11.4261570812       10.9299758849       -1.1272512832
 H       -12.4716016186       11.0477601531       -2.5560415035
 H       -10.8464958219       11.5829855762       -2.6702834870
 H       -11.6281500996        6.3209112923       -5.3767938487
 H       -12.3948377777        7.3037358286       -4.0836767768
 H       -11.1380725662        5.7744217385       -2.4286789454
 H       -10.4777404191        4.9013662096       -3.8621502392
 H       -13.4465603123        2.0327767838       -0.6059092096
 H       -12.1098051775        2.3378758940        0.3269430174
 H       -10.6065406923        0.7784711876       -1.0996029433
 H       -11.7589531786        0.7286386202       -2.3056171401
 H        -9.1597533205       -2.6951862723        1.2160598957
 H       -10.0518207064       -1.0423343847        1.2271713146
 H        -7.1420414729       -1.5822219314        0.2516056675
 H        -7.5290744046       -0.9539353851        1.8734199752
 H        -4.4064659732        2.7789562165        0.2440864673
 H        -4.8021963424        1.3657736527        1.1478130352
 H        -5.5947041777        4.2410469090        1.8873416321
 H        -4.0929785735        3.4231816318        2.5044107528
 H        -8.5252179089        4.3741154670        5.7222967003
 H        -9.0349786085        3.6272370244        4.1170938036
 H        -8.9312548378        6.7501718889        4.2586106004
 H       -10.1523313666        5.9582064351        4.9736886837
 H        -9.4742090017        8.9998206935        0.2412833687
 H        -7.9197308880        8.3857274481        0.1583266652
 H        -8.4207443682        8.9476692034        1.7212036007
 H       -11.3999062143        5.2045479020        0.7238687219
 H       -12.0220607904        6.7620391409        0.1487033533
 H       -12.6537215919        5.9092211361        1.5782669800
 H       -10.7984435883        8.8610496565        2.0887111389
 H       -10.7344733895        8.0551773007        3.5374624308
 H       -12.1568761243        7.8362411896        2.7066848952
 H        -6.1420572484        1.6859045663        6.0407577188
 H        -7.6514504427        1.5841062818        5.1728469186
 H        -7.4142741802        2.7914319064        6.3831451812
 H        -5.0744199420        4.4256273408        6.0518907860
 H        -4.5624350285        4.5853215379        4.3302330137
 H        -4.2236376694        3.1268070973        5.1385051285
 H        -5.2526154755        0.0749534310       -0.2059077055
 H        -5.3219789964        0.5346028162       -1.8447899714
 H        -6.3755251332       -0.8595769568       -1.4377382339
 H        -7.3858469698        2.5503053923       -2.1834888269
 H        -8.8899211192        2.0465601851       -1.3763197260
 H        -8.0032295530        1.0511963768       -2.4899050948
 H       -12.4566279207       -2.4526129087        0.9377361717
 H       -11.0826544884       -3.4838742294        0.7468701546
 H       -12.4985469507       -3.7666486629       -0.1897470791
 H       -11.9682935365       -3.6868548849       -2.3082886293
 H       -10.9909046372       -2.4486679516       -3.0525733133
 H       -12.5541124220       -2.0172800941       -2.6206983416
 H       -14.8926300124        4.7803248615       -2.4079599335
 H       -13.4980092875        5.3174053620       -1.4403212416
 H       -14.3876036909        3.8753813961       -0.8540565415
 H       -14.6574884352        1.9547755469       -2.5758025570
 H       -12.9686521718        1.5734816617       -3.2407607641
 H       -14.0577497823        2.3785535002       -4.2059214302
 H       -12.1719962305        9.2777086610       -5.2685478130
 H       -10.7190837705        9.6075997856       -6.1392069293
 H       -11.3075065232       10.8477806784       -4.9638423107
 H        -8.6747838920        9.6001831924       -2.7452696610
 H        -9.0877051233       10.7389016290       -3.7859460070
 H        -8.1099910043        9.3242175342       -4.3726641087
 Na       -9.3303802709        3.8576753252        0.4902188420
