117

 C       -11.4923840765       10.6878363944       -3.3018248035
 C       -10.7209341921        9.4027745104       -3.1206481628
 O       -10.7321241068        8.7805821403       -2.0383084456
 C        -9.8314721066        8.8802545169       -4.3309223648
 C        -9.8981271744        7.3473118275       -4.2932209890
 O        -8.9225238044        6.6603308014       -4.1749538654
 C       -11.4021017330        6.7709937012       -4.3073925904
 C       -11.8917412217        5.9165765919       -3.1424304007
 C       -12.5302100550        4.6544339956       -3.5017252664
 O       -12.4556835146        4.1637725480       -4.6142173235
 C       -13.3622318875        3.8791832588       -2.4192078212
 C       -12.3952147840        3.1504272015       -1.3771839885
 O       -11.2602496397        3.6710346588       -1.2653316126
 C       -12.7588430295        1.9677376036       -0.5228722805
 C       -12.3241561462        0.7034802614       -1.2196394569
 C       -12.3729815662       -0.4308827988       -0.1600686842
 O       -12.9554275068       -0.2881677249        0.9052966106
 C       -11.5505642830       -1.7546214258       -0.4943775866
 C       -10.0652233965       -1.5240468497       -0.1544577643
 O        -9.3051169334       -1.1653589961       -1.0486251657
 C        -9.6806440488       -1.5441513608        1.3251373101
 C        -8.2981008784       -0.7884966810        1.5183989701
 C        -8.2591602362        0.3672653207        0.5293149309
 O        -9.2415748346        1.0329567489        0.4624975239
 C        -6.9190531706        0.7433551355       -0.2338542706
 C        -6.3879807350        2.0800489217        0.4491233882
 O        -7.1001662100        3.0565861190        0.4252756053
 C        -4.9628538827        2.0418253060        0.9838678464
 C        -4.8161571803        3.1012090121        2.0812121489
 C        -5.8850058053        2.8542546800        3.1980114750
 O        -6.6595721616        1.9019008251        3.1114399298
 C        -6.0833825298        3.9362679156        4.3429718653
 C        -7.3316059696        4.9419102605        3.9893558622
 O        -7.1737983858        5.7040947538        3.0270859591
 C        -8.5266860950        4.8653853867        4.8172487086
 C        -9.6097087780        5.7225525508        4.1550323251
 C        -9.8951507806        5.3086245961        2.7225678028
 O        -9.7672790083        4.1512934182        2.3335578537
 C       -10.3973600526        6.4166486988        1.7389148452
 C        -9.3714461413        6.4903083937        0.5626382043
 O        -9.2619811714        5.5896679806       -0.2332251059
 C        -8.6087260190        7.7542314248        0.2537331289
 C       -11.7968109696        5.9550845211        1.0840329748
 C       -10.6890314366        7.7837972018        2.4026471603
 C        -6.1152932950        3.1227109695        5.6759536260
 C        -4.8322903886        4.8156358305        4.4125864674
 C        -5.8320041507       -0.3472160452       -0.2455707250
 C        -7.3840539085        1.2988406645       -1.5539867493
 C       -12.1985018211       -2.8817174612        0.4029871338
 C       -11.5410705687       -2.0941710858       -1.9895329925
 C       -14.1441574172        4.8401355830       -1.4776928105
 C       -14.3606573992        2.9397938497       -3.0975495425
 C       -10.4283944710        9.2678363550       -5.6507615703
 C        -8.3684807686        9.4502880731       -4.2303491584
 H       -12.2014165201       11.0104960156       -2.4674025874
 H       -12.0799555035       10.7138452263       -4.1970267228
 H       -10.7392143254       11.4141192580       -3.4524674375
 H       -11.5980330797        6.1301530221       -5.2226973514
 H       -12.1035720664        7.5203852427       -4.4077845909
 H       -12.4892084236        6.4919168480       -2.4282518565
 H       -10.9961881022        5.6016751970       -2.5231888911
 H       -13.8333337795        1.9566156087       -0.3706334695
 H       -12.2883072946        2.0144831363        0.4210186162
 H       -11.3345197398        0.7267012014       -1.5978366969
 H       -13.0080522612        0.4012829204       -1.9644778343
 H        -9.6704414315       -2.6114571134        1.7280703031
 H       -10.5625652226       -1.1603149469        1.8372467642
 H        -7.4901786548       -1.5084517985        1.4397657016
 H        -8.2939653546       -0.4366634134        2.5358811242
 H        -4.2327256157        2.1909462578        0.1523748200
 H        -4.6274171003        1.1181713898        1.4320935613
 H        -4.8489874169        4.1518073751        1.7380678949
 H        -3.8628299705        2.9224074829        2.6337219277
 H        -8.3629094073        5.2082024137        5.8798022762
 H        -8.8511537588        3.7833172169        4.8166361363
 H        -9.3196843512        6.7403794826        4.2126250088
 H       -10.5094443973        5.5489769460        4.7298034204
 H        -9.2807234258        8.5025765406       -0.2816813954
 H        -7.8032587627        7.5505268025       -0.4185020121
 H        -8.2322610248        8.2515361176        1.1225471023
 H       -11.8587705334        4.9735463137        0.5998065476
 H       -11.9955095968        6.6554612637        0.3124328014
 H       -12.6401190306        6.1498755210        1.7365511534
 H       -11.2437501748        8.4124193343        1.7246360250
 H        -9.8399534943        8.2491778751        2.6827148966
 H       -11.2149043160        7.7106758647        3.3716827106
 H        -5.5603763960        2.1951008309        5.5761454806
 H        -7.1350675922        2.8264866432        6.0087716050
 H        -5.7049826526        3.7338341547        6.4515945614
 H        -4.9575535513        5.6837578578        5.1228159802
 H        -4.6408274738        5.2497672596        3.4485928120
 H        -4.0498808818        4.1807097710        4.7117442963
 H        -5.5372002538       -0.6363572877        0.7571566170
 H        -5.0815319947        0.1195833000       -0.7791197396
 H        -6.1118086912       -1.3822943988       -0.5932594938
 H        -6.5448059580        1.8177129237       -2.0402635242
 H        -8.1334342024        2.0417421240       -1.4723486559
 H        -7.8040541748        0.4802287645       -2.1185055312
 H       -12.3722010113       -3.7505262485       -0.2221062246
 H       -13.1893410353       -2.5467487021        0.8890767919
 H       -11.4785656553       -3.1472798869        1.2042815604
 H       -11.1776174467       -3.0759211890       -2.1724191420
 H       -10.9476068430       -1.4493759798       -2.5737049631
 H       -12.5513516797       -2.0935313669       -2.3832357134
 H       -14.6426696924        5.6496854011       -2.1217846049
 H       -13.4961999120        5.3887888535       -0.8403451664
 H       -15.0425548244        4.4233268764       -0.9997330197
 H       -14.9286943620        2.2350397938       -2.5473460534
 H       -13.8231216891        2.3249966030       -3.8113323370
 H       -15.1526472623        3.5147984402       -3.6525780080
 H       -11.4978974437        9.1656648158       -5.5722976207
 H        -9.9975456168        8.6412076159       -6.4120042199
 H       -10.1646268139       10.3088078480       -5.9411843742
 H        -7.7242907886        9.0458809451       -3.5350325837
 H        -8.4736774966       10.5075181683       -4.2613262615
 H        -7.8272839262        9.3285776668       -5.1486685776
 Na       -9.6255279994        3.2869115509        0.2045591022
