117

 C       -11.4635817556       10.7511850297       -3.4441330632
 C       -10.6054944039        9.4893675212       -3.1701278695
 O       -10.7887758886        8.8857621523       -2.1133813155
 C        -9.8329082611        8.8920253863       -4.3463863199
 C        -9.9530536038        7.2182309080       -4.1730547067
 O        -8.9779581225        6.4728690703       -4.1389199711
 C       -11.3220151175        6.6891881283       -4.3096148070
 C       -11.8266638226        5.9229119502       -3.1115945519
 C       -12.5582573934        4.5998468834       -3.4975960648
 O       -12.3790335818        4.0844852053       -4.5544547308
 C       -13.4673930408        3.9011384971       -2.4277860587
 C       -12.4269879062        3.2427775075       -1.4841641399
 O       -11.3491894711        3.8108992281       -1.3195263645
 C       -12.8116786523        2.0289278822       -0.6574600530
 C       -12.4319737084        0.6784946959       -1.2597777891
 C       -12.3129269570       -0.4421581796       -0.2239420331
 O       -12.8680893842       -0.2585544207        0.8517881449
 C       -11.6344602674       -1.8491131604       -0.4751911922
 C       -10.1726253424       -1.5027158744       -0.0994182649
 O        -9.3610307410       -1.1670394726       -0.9210628492
 C        -9.6715355937       -1.5166250101        1.3803929809
 C        -8.3003924799       -0.8673788951        1.4610529131
 C        -8.3127026820        0.3407405254        0.5526292737
 O        -9.2891151438        1.0866091006        0.3397502837
 C        -6.9774270019        0.7727269742       -0.1592533110
 C        -6.4390822191        2.0639459066        0.5170233310
 O        -7.1251808727        3.0607456114        0.3933621527
 C        -5.0366588513        2.1416982238        1.0621602251
 C        -4.9106989077        3.1670997046        2.1317714196
 C        -5.9174533030        2.9435441525        3.1790069630
 O        -6.7321135181        2.0307988222        3.1319927636
 C        -5.9213696058        4.0188853035        4.3423227109
 C        -7.1748497230        4.9309753253        4.0040960060
 O        -7.1690932965        5.6818803054        3.0590148342
 C        -8.4632544796        4.7771693000        4.8148132337
 C        -9.6662788810        5.6502204671        4.2277570056
 C        -9.8566509976        5.3060231189        2.7519197775
 O        -9.7047666701        4.1866516112        2.3303552652
 C       -10.3539095119        6.4675083548        1.7042244733
 C        -9.3162635451        6.4512451930        0.5023004694
 O        -9.1984194911        5.4714433106       -0.2104117200
 C        -8.5157436982        7.7189342892        0.3620792152
 C       -11.6911420482        5.9015950795        1.1585378714
 C       -10.6175677788        7.7971417438        2.3650468430
 C        -6.2038883736        3.3568435367        5.7270879283
 C        -4.6382941816        4.9204118983        4.3558850512
 C        -6.0087454279       -0.4352373261       -0.1171648064
 C        -7.2958080597        1.1483141620       -1.6909448260
 C       -12.2377850685       -2.8591585303        0.5322552716
 C       -11.6401547373       -2.2532079733       -1.9575548248
 C       -14.1947927569        4.8466301484       -1.3872527623
 C       -14.4240213028        2.9279552161       -3.1210311963
 C       -10.3740388698        9.2475094619       -5.7795622413
 C        -8.3854973515        9.5031673489       -4.1930621202
 H       -11.9285386445       11.0759361009       -2.5307375843
 H       -12.2707558882       10.5993814849       -4.1902990993
 H       -10.8634086107       11.5779821266       -3.8634641466
 H       -11.3149877821        5.9597534887       -5.1325668686
 H       -12.0920818069        7.3708366689       -4.6202752263
 H       -12.4877877068        6.5802282058       -2.5406178104
 H       -10.9952659203        5.7402489545       -2.4210557237
 H       -13.8887724840        2.0981438482       -0.4697655988
 H       -12.3043716613        2.1047083888        0.2803367942
 H       -11.4325783641        0.7401036924       -1.7048541197
 H       -13.2067795239        0.3186135902       -1.8881739322
 H        -9.6075091555       -2.5667438863        1.6800226652
 H       -10.4791113091       -1.1776876455        2.0988372869
 H        -7.6086969998       -1.6503045243        1.0910907932
 H        -8.0705556973       -0.7243830293        2.4787166098
 H        -4.3927893840        2.4306191745        0.2024620369
 H        -4.5525168692        1.1853914361        1.4654087063
 H        -5.2055732175        4.1948590722        1.7669706917
 H        -3.9357449199        3.2536089468        2.5392646636
 H        -8.3184421611        5.1890159165        5.8656180496
 H        -8.7357071757        3.7132474718        4.8776361332
 H        -9.2889307359        6.6621707307        4.2856814621
 H       -10.5480575334        5.5234426079        4.7915944527
 H        -9.1291795574        8.5695800878        0.1209168318
 H        -7.7767442800        7.6097166402       -0.3817571510
 H        -7.9897100380        7.9593328003        1.3139338633
 H       -11.4633199822        5.0593638099        0.5610336659
 H       -12.1289138393        6.6728271423        0.4268854130
 H       -12.5065086343        5.7616896974        1.8147224482
 H       -10.6758500003        8.5056705614        1.5773924449
 H        -9.8476316054        8.1167610209        3.0718417151
 H       -11.4820877908        7.8235168033        2.9989447242
 H        -5.5275252095        2.5787733240        5.9205557956
 H        -7.1414537101        2.8464760217        5.6463362277
 H        -6.2741620119        4.0479815132        6.5086785741
 H        -4.6593242036        5.5262074843        5.2116541676
 H        -4.5597175304        5.5491404691        3.4774267774
 H        -3.7691324811        4.2467367617        4.3871147348
 H        -5.9971554539       -1.0110627904        0.7395130131
 H        -5.0477977541       -0.1351989059       -0.3860038954
 H        -6.3891872363       -1.2095463269       -0.8097175145
 H        -6.3464256928        1.2839448516       -2.1289430886
 H        -7.8532806427        2.0337022426       -1.9260301457
 H        -7.8133148062        0.2659862144       -2.1091107339
 H       -12.9570107461       -3.5353662941        0.0398672824
 H       -12.7667527979       -2.2614372975        1.1812406844
 H       -11.4515305700       -3.3831412639        1.1184761129
 H       -11.0134623572       -3.1605372338       -2.0907143237
 H       -11.2242539456       -1.5538571681       -2.6346169656
 H       -12.6038981871       -2.5277011076       -2.2765063172
 H       -14.6788882867        5.7210982136       -1.8981145897
 H       -13.5611249039        5.2764435643       -0.6324333186
 H       -15.1124087068        4.3282617401       -1.0488463936
 H       -14.7053818384        1.9525259016       -2.6492268914
 H       -13.9224592094        2.6061593088       -4.0512645122
 H       -15.3880711694        3.3345237541       -3.3624744254
 H       -11.4611459356        9.2808632531       -5.7371686500
 H       -10.0128483162        8.4639572210       -6.5275945113
 H        -9.9626124381       10.1965316851       -6.1169160676
 H        -7.7734857001        9.0600378486       -3.4529160243
 H        -8.3888326529       10.5490848024       -4.2611240180
 H        -7.8038303336        9.2193665913       -5.0778715845
 Na       -9.5472510584        3.2852330571        0.1214432689
