117

 C       -12.3345238529        6.0695500904       -9.2844875632
 C       -12.1527199209        6.2963601015       -7.8084989378
 O       -11.8106294025        5.3978800530       -7.0017636501
 C       -12.4487458640        7.7500154936       -7.1315971411
 C       -11.4228751986        7.8312872474       -5.9176740688
 O       -11.8088420138        7.5408456883       -4.8147480814
 C        -9.9413496946        8.1310943708       -6.2448358823
 C        -9.1763575191        8.3708972337       -4.8544379829
 C        -8.4900736555        7.0751716858       -4.3726511436
 O        -7.7924819510        6.3991215675       -5.0908806105
 C        -8.6588425897        6.7432480654       -2.8414498602
 C       -10.0658879764        5.8754112612       -2.7373258397
 O       -10.9184789898        6.1720461142       -1.9926296776
 C       -10.1284584378        4.5394213650       -3.5908070447
 C       -11.2611405622        3.6979982636       -3.0261595057
 C       -10.9931133081        3.0949889158       -1.6750368190
 O        -9.9082269272        3.0802946035       -1.0878149456
 C       -12.2522512908        2.4478402699       -0.9236689942
 C       -12.3078092769        3.1358042655        0.4347828815
 O       -12.0592918170        2.5030366504        1.4943843858
 C       -12.6819117165        4.6294010360        0.4865024294
 C       -12.4621988847        5.2798049574        1.8969258314
 C       -11.0104267918        5.0253839104        2.4228429449
 O       -10.0903716715        5.0175866993        1.6030912101
 C       -10.7460089210        4.9351535266        4.0491403064
 C       -10.0750636588        3.4736574863        4.3900781278
 O        -9.7558410099        2.7191793495        3.5464932956
 C        -9.7115447983        3.2208546510        5.8289262184
 C        -8.5346838391        2.1498819506        6.0165693904
 C        -9.1144003722        0.6546136746        6.2908291387
 O       -10.2083279287        0.4069932212        6.6591009497
 C        -7.9598724533       -0.4418124686        6.4071351884
 C        -7.4178277852       -0.6548562925        4.9099738718
 O        -6.4359213533       -0.1146187843        4.4426850911
 C        -8.4048040704       -1.4185108484        4.0176986425
 C        -7.8952462808       -1.3646472404        2.5470053090
 C        -8.0634059999       -0.0205176282        1.6326080437
 O        -9.1146783115        0.5481371371        1.4449532429
 C        -6.7778096863        0.4294058843        0.8238879254
 C        -6.1984840129        1.8619185330        1.4005106772
 O        -6.9441002856        2.8620976146        1.3845214399
 C        -4.7484454108        1.9323485667        1.8377041462
 C        -5.7778597197       -0.7111292594        0.7751999549
 C        -7.2675782484        0.7020968386       -0.6251205674
 C        -6.7224497678        0.1096881790        7.2010886917
 C        -8.5920546524       -1.7009500944        7.0808436348
 C        -9.5718194195        5.9110010550        4.2800499603
 C       -11.9721388391        5.2662525227        4.8886848954
 C       -13.5578981788        2.6585560202       -1.6731474219
 C       -11.8666175212        0.9269172302       -0.7748221084
 C        -7.4821597637        5.8649934409       -2.4209320459
 C        -8.6184380970        8.0238054126       -2.0006977596
 C       -12.3062780105        8.7977908066       -8.2459686633
 C       -13.9662714404        7.8006387853       -6.6404581398
 H       -12.0222818661        5.1582414416       -9.6640028763
 H       -11.8700868497        6.8494064337       -9.8228888079
 H       -13.3881291155        6.2322622717       -9.6814660659
 H        -9.9784981069        9.0293052345       -6.7500475258
 H        -9.5858126997        7.4566809436       -7.0817745628
 H        -9.7932268722        8.7091381301       -4.0761713000
 H        -8.3356779296        9.1159925123       -4.9983427339
 H        -9.2405788338        4.0178437977       -3.6653802000
 H       -10.3861917632        4.9493329784       -4.5694977949
 H       -11.4612201662        2.9706339038       -3.7767941221
 H       -12.1503747311        4.2427331686       -2.9640197612
 H       -13.7374348808        4.7268758461        0.2932154497
 H       -12.2023111129        5.1500259058       -0.3131398442
 H       -13.1310365253        4.9025219899        2.6379791671
 H       -12.7137833582        6.3271540986        1.5697144523
 H       -10.5430953347        2.8232301533        6.3907338759
 H        -9.2417012426        4.0932495341        6.2248479765
 H        -8.0832806736        2.3736601678        6.9734943326
 H        -7.7793016080        2.0252130846        5.2987864179
 H        -9.4556082077       -1.0044045872        4.1036307862
 H        -8.3344045533       -2.4998228422        4.2514812657
 H        -8.5174928752       -2.0609120513        2.0433782225
 H        -6.8942956500       -1.6971244757        2.6413999326
 H        -4.7066946554        1.8145797018        2.8969283850
 H        -4.4724650157        2.9646945358        1.6423260048
 H        -4.0313078337        1.3169475148        1.2641109869
 H        -6.3667272622       -1.6025046362        0.6069166516
 H        -5.2699995580       -0.8017117258        1.7099096975
 H        -5.0325075596       -0.5423686889       -0.0704056682
 H        -7.7791871224       -0.1993505769       -0.9855301061
 H        -6.5125973253        1.0219475946       -1.2549217204
 H        -8.0773102497        1.4221915074       -0.6416333201
 H        -6.8724234334        0.9732864950        7.7808965011
 H        -6.0559232392        0.4669978958        6.3898185923
 H        -6.2995095869       -0.6414923965        7.7755847075
 H        -9.2323069940       -1.1683625548        7.8166662836
 H        -7.8691363104       -2.3194585683        7.7137518663
 H        -9.2742177260       -2.3879169518        6.4974524283
 H        -9.7437189377        6.9251113307        3.8217147136
 H        -8.6421513428        5.5653826445        3.7912896157
 H        -9.4714003755        6.0326915285        5.3650916536
 H       -11.7627468025        5.7012879145        5.8952739928
 H       -12.5156040026        4.3530708282        5.0220275977
 H       -12.4774238124        5.9890246658        4.3667286899
 H       -14.4014368053        2.2381925033       -1.1239417577
 H       -13.5185209894        2.1529856163       -2.6089702156
 H       -13.7787089862        3.7765432759       -1.9251812978
 H       -12.2745639715        0.4411093498        0.0959667297
 H       -10.7837153551        0.7706377478       -0.7923624872
 H       -12.2533018318        0.3833326367       -1.6372041917
 H        -6.5742332865        6.4565538152       -2.4434684210
 H        -7.3573386638        5.0210524755       -3.1359011801
 H        -7.5112500121        5.4454247610       -1.4178814800
 H        -8.0002616301        8.7826357543       -2.5029807122
 H        -8.0524086320        7.8603773973       -1.0788838645
 H        -9.5823616204        8.4488667609       -2.0146565699
 H       -11.3724455471        8.6388354927       -8.8353211619
 H       -12.1301545065        9.8098387642       -7.8583652261
 H       -13.1481400313        8.7379121042       -8.9200842821
 H       -14.5288875677        6.9728499587       -7.0867975566
 H       -14.5399664705        8.6827199351       -6.9146179575
 H       -13.9939132502        7.6382115628       -5.5996778236
 Na       -9.3847789994        2.8434415867        1.0280388029
