117

 C       -10.9580848387       11.0541789924       -4.4253313104
 C       -10.8129884436        9.6286951206       -3.9010292449
 O       -11.2723932140        9.3552567471       -2.8334739517
 C        -9.7243684028        8.6186854362       -4.5981051551
 C        -9.9931043704        7.1238522874       -4.0050072710
 O        -9.2933160295        6.5637424626       -3.1778861216
 C       -11.2643653123        6.3902011860       -4.5233908462
 C       -11.8212180569        5.6649851178       -3.2886630153
 C       -12.7011109679        4.5065860676       -3.7329678758
 O       -12.7155057319        4.1353135244       -4.9050065098
 C       -13.4929817167        3.7677799707       -2.6183986554
 C       -12.5327214274        3.0007319594       -1.7220003331
 O       -11.3891294870        3.2972100397       -1.7767879190
 C       -13.0714595413        1.9109652216       -0.7542312154
 C       -12.2801534651        0.6028300370       -0.8499740372
 C       -12.7945224857       -0.5227606827        0.1730857877
 O       -13.5150250615       -0.2785517799        1.1103214311
 C       -12.2580987038       -1.9530995249       -0.1733527450
 C       -10.7009776897       -2.0768045293       -0.0263556387
 O        -9.9712414891       -2.5491381684       -0.9012512952
 C       -10.0844386631       -1.5696381462        1.3268097956
 C        -8.6124618014       -1.0789093705        1.0293323044
 C        -8.4498821167        0.3342326607        0.6778386923
 O        -9.3811343631        1.1408619524        0.7655239506
 C        -7.0572559867        0.6593880404       -0.0118675863
 C        -6.6005052617        2.1055311246        0.4508000852
 O        -7.1911569028        3.1056210059        0.1418171144
 C        -5.3264268033        2.2737173004        1.2380498971
 C        -5.2012488257        3.6067865465        2.0755379494
 C        -5.5853125857        3.3670837786        3.5770791452
 O        -5.8394611646        2.2420475999        3.9491226137
 C        -5.5491541470        4.5626654448        4.4441542517
 C        -6.9576114492        5.4261301788        4.3049289622
 O        -6.9649921590        6.5890239179        4.0224894098
 C        -8.2133083106        4.6704431969        4.5480620199
 C        -9.4473214873        5.4640657931        4.0190869895
 C        -9.6839097360        5.2702153351        2.5446616923
 O        -9.6957633387        4.1627481215        2.0464529922
 C        -9.9447780653        6.5423683333        1.6796434126
 C        -8.6528031161        6.5468771897        0.7589209837
 O        -8.4841549508        5.6280200346       -0.0204955624
 C        -7.6560966363        7.6766187997        0.8665412809
 C       -11.2886751294        6.2309087854        0.8558392922
 C       -10.1072025414        7.8715491527        2.4479401300
 C        -5.5661544633        4.0748338286        5.8804584430
 C        -4.4379267820        5.5888347128        4.0021610588
 C        -5.9718565386       -0.3805104715        0.2108929296
 C        -7.4772985676        0.7024702575       -1.5009998763
 C       -13.0123025343       -2.9152712526        0.8041661700
 C       -12.6325189958       -2.3805445273       -1.5421661115
 C       -14.3241770480        4.8379367518       -1.7905418858
 C       -14.5769452071        2.8904311720       -3.3433353384
 C        -9.8095204033        8.7186208842       -6.1241750351
 C        -8.2499962343        8.9830934089       -4.2123458844
 H       -11.6243345845       11.5587188527       -3.7798984599
 H       -11.2204920767       11.2391740298       -5.4692424466
 H       -10.0045458352       11.6040135600       -4.2760797082
 H       -11.0161297558        5.6567456667       -5.2588344966
 H       -12.1348332212        6.9826183680       -4.8907632025
 H       -12.3264504079        6.4643967057       -2.6867290231
 H       -10.9396758517        5.4203483031       -2.6903693691
 H       -14.1626135325        1.8315701671       -0.8682866478
 H       -12.8243852146        2.4308335555        0.1799603190
 H       -11.2677889364        0.8003853448       -0.4655068007
 H       -12.3471123780        0.2456698290       -1.8631782096
 H       -10.0458334055       -2.3658359684        2.0477882793
 H       -10.7875148971       -0.7377543287        1.6576577816
 H        -8.1470682673       -1.7786154311        0.3060106862
 H        -8.0970773831       -1.2665573548        1.9556840857
 H        -4.5721659063        2.3173024478        0.5180247608
 H        -5.1439301278        1.4606590191        1.9540517040
 H        -5.9174778908        4.4172029692        1.7319859489
 H        -4.2082013444        4.0319186500        1.9963451353
 H        -8.4802957418        4.3477754361        5.5827685488
 H        -8.1990305284        3.7103878070        4.0298341051
 H        -9.3836482858        6.4927364273        4.4236000540
 H       -10.3208811674        4.9861936144        4.4704550529
 H        -8.0876295375        8.6253364333        0.6689587605
 H        -6.7760134832        7.4789837698        0.1646248993
 H        -7.2479632452        7.7353859697        1.9096215602
 H       -11.2136955544        5.4123205914        0.1388170994
 H       -11.5246191164        7.1699906281        0.2918436473
 H       -12.0985083282        5.9115026140        1.4835311090
 H       -10.6845427717        8.4763072936        1.7741966249
 H        -9.1801728528        8.4752433905        2.7256545262
 H       -10.8669207633        7.7655456876        3.1464229464
 H        -4.6434282658        3.5138132562        6.2024691911
 H        -6.4628538927        3.4715884867        5.9759802633
 H        -5.5725448241        4.9249117142        6.6314973318
 H        -4.2961063723        6.4371473789        4.6379860593
 H        -4.6390406592        5.9645719670        2.9732121913
 H        -3.4077999954        5.0832013937        3.9443382789
 H        -5.8822000013       -0.6953532831        1.2765513947
 H        -4.8980181507        0.0895355227        0.1251468987
 H        -5.9955583587       -1.0883279411       -0.5381900406
 H        -6.6464245047        0.6597151613       -2.1753829530
 H        -8.1950126445        1.5427978057       -1.6933184177
 H        -7.9245268594       -0.2807743894       -1.6848126509
 H       -12.2340815355       -3.3960708125        1.4490456505
 H       -13.5371294461       -3.6480279194        0.1846734714
 H       -13.7262087521       -2.3369080392        1.3952866207
 H       -12.4190377503       -3.4626722684       -1.6558065805
 H       -12.3231126358       -1.7761434505       -2.4279547264
 H       -13.7255733442       -2.3395744026       -1.5469264944
 H       -14.9796991794        5.3277510255       -2.3894030771
 H       -13.6875514242        5.5950487781       -1.3018434725
 H       -14.7499823088        4.3579287961       -0.9555254102
 H       -15.2382342979        3.5624075267       -3.9217436542
 H       -15.2502512368        2.2932063791       -2.7158346626
 H       -14.1402373290        2.1655872579       -3.9613308702
 H       -10.8165509592        8.5822630069       -6.5109831825
 H        -9.1210337322        7.9872076338       -6.5999003120
 H        -9.5109569423        9.7169211414       -6.3564625133
 H        -8.0795125504        8.9103359926       -3.1052128144
 H        -8.0267415171       10.0412871051       -4.2567503048
 H        -7.5520721513        8.4115930725       -4.8460437808
 Na       -9.4453825070        3.3776239976       -0.1517136716
