117

 C       -12.2414469218        6.0345858476       -9.2466411023
 C       -12.1764988379        6.2943685839       -7.8157666175
 O       -11.7351694374        5.4340577994       -7.0417812235
 C       -12.4996613147        7.6308614016       -7.2051943560
 C       -11.4769187301        7.7085616358       -6.0450231295
 O       -11.7458978575        7.4098254420       -4.9120077146
 C        -9.9926285954        8.1768126549       -6.2977212613
 C        -9.2490319037        8.2953732088       -5.0244500670
 C        -8.5135077997        7.0150183745       -4.5130636605
 O        -7.8604161050        6.2690568737       -5.2158024765
 C        -8.6750605330        6.6792135093       -2.9475509044
 C       -10.0192143026        5.8393285519       -2.7455986853
 O       -10.8544070745        6.2536110656       -1.9894372362
 C       -10.2989478979        4.5569297703       -3.5796100452
 C       -11.3461189775        3.6423856541       -2.9207987898
 C       -11.0920717036        3.0103385417       -1.6114356144
 O        -9.9807354594        2.8211196866       -1.1543182949
 C       -12.2910219559        2.3237108697       -0.8641069247
 C       -12.3066006948        3.0726646397        0.5384524923
 O       -12.0110524089        2.4731836249        1.5542257405
 C       -12.4872806359        4.6510467110        0.4904032027
 C       -12.3013161822        5.1624379939        1.8666935037
 C       -10.9215939541        4.9628234203        2.4082476434
 O        -9.9596156169        4.9741314877        1.6315852063
 C       -10.7230098237        4.9194817107        3.9159788307
 C       -10.0691845814        3.5255158367        4.4013666618
 O        -9.7153094162        2.7401498819        3.5680305493
 C        -9.7911990993        3.3124214456        5.9219586036
 C        -8.6332762288        2.2711181433        6.0249577397
 C        -8.9804985394        0.8397526630        6.4310549487
 O       -10.1419742563        0.5855244285        6.6837031485
 C        -7.8145166493       -0.4748660059        6.4641202012
 C        -7.5131814615       -0.6625238091        4.9677952772
 O        -6.5578774769       -0.0688266576        4.5567536576
 C        -8.5347604030       -1.1724307802        3.9003823136
 C        -7.8400168027       -1.1485289606        2.4071822565
 C        -8.0396221968        0.0891632544        1.6656822246
 O        -9.1437010402        0.6088247062        1.5139602580
 C        -6.7993736031        0.4888852327        0.7377245948
 C        -6.2116637447        1.8682725967        1.3435878329
 O        -7.0034616726        2.7810264313        1.4718662574
 C        -4.8129499919        1.9692297456        1.7273024601
 C        -5.7070971342       -0.5710509291        0.6473218388
 C        -7.3573587694        0.8070350707       -0.6924311286
 C        -6.5408097445        0.0480959333        7.2800936833
 C        -8.4004898126       -1.7369702526        7.1948756548
 C        -9.5553906757        5.9918138101        4.2680279919
 C       -11.9888767773        5.3024311047        4.7935694486
 C       -13.6218740446        2.5673956814       -1.5712835334
 C       -11.9223238619        0.8678193251       -0.5755392657
 C        -7.4072394846        5.8775801193       -2.4515492005
 C        -8.8945737403        7.9187364199       -2.0625726707
 C       -12.3940142901        8.8798308382       -8.2055104658
 C       -13.9315091107        7.6614920751       -6.5536075845
 H       -11.7319317649        5.0499913600       -9.5179995394
 H       -11.7497911766        6.8633472985       -9.8131310154
 H       -13.1914564874        6.0567506170       -9.7687220698
 H        -9.8894101977        9.0603114971       -6.9354442592
 H        -9.5431033677        7.4529814203       -6.9730762113
 H        -9.8473335717        8.5720575770       -4.1451184680
 H        -8.5222984692        9.0541419980       -5.1365696466
 H        -9.3962717523        4.0093224547       -3.6530622112
 H       -10.6141101284        4.9029771456       -4.5286345088
 H       -11.5066730570        2.8743710234       -3.6957108040
 H       -12.3257193323        4.0977379307       -2.8652609988
 H       -13.4368571724        5.0475982142        0.1066882855
 H       -11.7093009900        5.0020224277       -0.1950280423
 H       -13.0233571810        4.7713677863        2.5547182946
 H       -12.5049212991        6.2778250775        1.7075627125
 H       -10.6887567672        2.9758790472        6.3400779655
 H        -9.3682745691        4.1549411056        6.3862751405
 H        -7.8629489045        2.5844905520        6.7275074640
 H        -8.1635473617        2.0790244982        5.0274895692
 H        -9.3498259405       -0.4276629458        3.8626032685
 H        -8.8950949464       -2.1928237625        4.1048139998
 H        -8.1516765233       -1.9320649544        1.8002064131
 H        -6.7537288675       -1.1522160359        2.6497636753
 H        -4.8842741883        2.0347052767        2.7672529251
 H        -4.3817514782        2.9728622616        1.3720771520
 H        -4.1588093803        1.2201880237        1.4101895317
 H        -6.1544177457       -1.5355721522        0.3667218813
 H        -5.3149101184       -0.6448170925        1.5955204657
 H        -4.9247324462       -0.2723144591       -0.0765820963
 H        -7.7467116938       -0.0680847711       -1.1117516402
 H        -6.5286103847        1.1501037978       -1.2796965328
 H        -8.1715331784        1.5326922989       -0.8103393474
 H        -6.9208843166        0.8266305697        7.9740272443
 H        -5.8761186899        0.6020327668        6.6485990445
 H        -6.0684791931       -0.7388409847        7.8199832972
 H        -9.0595946755       -1.3941225660        8.0084206340
 H        -7.5765668022       -2.3108978965        7.6517188152
 H        -8.9894049249       -2.4603443760        6.5599741883
 H        -9.8350232212        6.9270489491        3.8436845548
 H        -8.5178991050        5.8254541360        3.9319728715
 H        -9.6633801385        6.0892947271        5.3952612853
 H       -11.8302840636        6.1162531528        5.5028011060
 H       -12.3461007450        4.3841176670        5.2884229174
 H       -12.6977904608        5.7990896127        4.1439873322
 H       -14.3419562369        1.8883088803       -1.0284433119
 H       -13.6996851596        2.3653403235       -2.6409465226
 H       -13.9586929457        3.5836087273       -1.4548343822
 H       -11.8202978795        0.6467595416        0.4729443672
 H       -10.9769178196        0.5817365594       -1.0496757611
 H       -12.6419729277        0.1571488583       -1.0198017928
 H        -6.5657191468        6.5682484147       -2.4454885554
 H        -7.1854019084        5.0527531862       -3.1202253329
 H        -7.4363538763        5.4446553896       -1.4563383473
 H        -8.3386899861        8.7930048248       -2.4011674248
 H        -8.4884062626        7.7212636564       -1.0829319805
 H        -9.9222441710        8.2114318353       -2.2050134308
 H       -11.5366995473        8.8937940164       -8.8845364011
 H       -12.2190761422        9.7261700697       -7.6436135195
 H       -13.3367385167        8.9477939195       -8.8458931484
 H       -14.6877952881        6.9216648073       -6.9603797740
 H       -14.4256424925        8.6361904388       -6.6231955725
 H       -13.7386347344        7.4651570997       -5.5333145683
 Na       -9.3537714786        2.8890361204        1.1420517762
