117

 C       -10.5851537062       11.0185778067       -4.8333660636
 C       -10.7042482369        9.6264484114       -4.2752317896
 O       -11.6816846871        9.2950815890       -3.5693552494
 C        -9.5736009435        8.5490624361       -4.6868469953
 C        -9.9010143877        7.2473830269       -3.8874024041
 O        -9.2018353888        6.8064554437       -2.9575736833
 C       -11.1854509785        6.4621542211       -4.2767252904
 C       -11.8264110351        5.5310305068       -3.1647002564
 C       -12.7463176493        4.4602150753       -3.7139355005
 O       -12.9898101605        4.3670767002       -4.9066085423
 C       -13.4437949232        3.5016972807       -2.6772990626
 C       -12.3307881404        2.9672116255       -1.6444463910
 O       -11.1889914365        3.2517047057       -1.6621614016
 C       -12.8878315675        2.0087150306       -0.5778509197
 C       -12.4126984248        0.6125545518       -0.8250534801
 C       -13.0974821334       -0.4420518293        0.1280334447
 O       -14.0210324481       -0.0577134918        0.8096609414
 C       -12.5313046541       -1.9366211892        0.0530536193
 C       -10.9909746144       -2.0915170298        0.1347389047
 O       -10.2572498638       -2.5684812362       -0.7372749496
 C       -10.2869197465       -1.3862657836        1.3595290143
 C        -8.7438512388       -1.1274179787        1.0840325478
 C        -8.5223071271        0.2795805152        0.5299085415
 O        -9.4234510637        1.0981405227        0.5390234234
 C        -7.1103818349        0.6047379082       -0.1377194223
 C        -6.6332747502        2.0053139627        0.5410886006
 O        -7.3276674564        2.9291131234        0.3202697608
 C        -5.4199409278        2.1671215960        1.4739680092
 C        -5.2041473044        3.5338196305        2.0896436170
 C        -5.4084778017        3.5860311924        3.6492000075
 O        -5.6100672797        2.5257718490        4.2477176564
 C        -5.4179423670        4.8637959783        4.4231035849
 C        -6.8781212630        5.5016297901        4.1942702794
 O        -6.9415436120        6.6912972695        3.8661150841
 C        -8.0564088662        4.6534708271        4.4517060386
 C        -9.4106384084        5.2437316957        4.0964513136
 C        -9.7546252781        5.1971436664        2.6093134473
 O       -10.0928634892        4.1172370576        2.1550538762
 C        -9.7708702178        6.4875742478        1.7153716495
 C        -8.5079701881        6.4048948275        0.7642096680
 O        -8.4405534919        5.5437544369       -0.0943416926
 C        -7.3864746386        7.4428086480        0.8679362725
 C       -10.9837020679        6.4337315137        0.7131980934
 C        -9.8661383486        7.9067834462        2.4033043802
 C        -5.1780325747        4.5502472620        5.9319109948
 C        -4.3680339930        5.8373596136        3.9434634971
 C        -6.0860679799       -0.5216103378        0.1440716978
 C        -7.1450396567        0.7892844601       -1.6803449966
 C       -13.2434386436       -2.7494306481        1.2561242504
 C       -13.1126322019       -2.3931473135       -1.3194191219
 C       -14.4390209881        4.3679476340       -1.8639231670
 C       -14.2598540502        2.4165814454       -3.4235014283
 C        -9.6116500209        8.3357870055       -6.2528428516
 C        -8.1598449087        9.1975753919       -4.3390827865
 H       -11.4116382281       11.7049246757       -4.4864267685
 H       -10.7890724569       10.9574607474       -5.8922400822
 H        -9.6573053587       11.5668017161       -4.6582625813
 H       -10.8968166811        5.7029201668       -4.9607003016
 H       -12.0333827920        7.0650568607       -4.7174165950
 H       -12.2956745175        6.1372191512       -2.3639801051
 H       -11.0140071118        5.0427257981       -2.6792477364
 H       -14.0058180870        2.1418150339       -0.5429118311
 H       -12.4020366180        2.2828110256        0.4150637550
 H       -11.2814292443        0.5284371281       -0.7523270934
 H       -12.6888796115        0.1796054298       -1.8247314847
 H       -10.4432111522       -2.0319011981        2.1624020886
 H       -10.7254484575       -0.3660048463        1.5002578354
 H        -8.3816304299       -1.8479371330        0.2999347469
 H        -8.1348657116       -1.3294913150        1.9794994116
 H        -4.5722976676        1.9037453228        0.9334631505
 H        -5.5834442554        1.4766902487        2.3137889476
 H        -5.7217999244        4.3150884386        1.4799842371
 H        -4.1453212187        3.7245389254        2.0304154496
 H        -8.0728644430        4.2178923388        5.4394721582
 H        -8.0545966758        3.7921709550        3.8239615373
 H        -9.5365322685        6.2225172357        4.6305154913
 H       -10.1982686442        4.5791840076        4.5602691900
 H        -7.6990463842        8.4095607214        0.5426114468
 H        -6.6347271381        7.1844878042        0.0879467117
 H        -6.8987812841        7.4797157575        1.8337927857
 H       -10.9666883406        5.4054421951        0.2439101262
 H       -10.7821156961        7.0784823279       -0.1173273059
 H       -11.9909391844        6.5023317313        1.1869246874
 H        -9.9373107698        8.7099656215        1.5796912626
 H        -8.9496357574        8.0320096737        3.0301245675
 H       -10.8099720900        7.9471401401        3.0156301791
 H        -4.5518318089        5.2919224141        6.3967220750
 H        -4.8220643675        3.5968379419        6.1118209698
 H        -6.1163740708        4.6760571584        6.4581047372
 H        -4.3401473425        6.7883878364        4.4654525040
 H        -4.5567603023        6.2032194945        2.9470414128
 H        -3.3599621932        5.4301855475        4.0372939109
 H        -5.5097570021       -0.3980691146        1.1094231667
 H        -5.3335229163       -0.3650738574       -0.6645648117
 H        -6.4895332896       -1.5514831872        0.2577585118
 H        -6.1641053959        0.9960601034       -2.0822826974
 H        -7.8375448508        1.6335716014       -1.8953820953
 H        -7.5271495607       -0.1043949823       -2.1286406234
 H       -13.6818247762       -3.6573142180        0.8761013321
 H       -14.0356641559       -2.1058861179        1.7041115199
 H       -12.5368819526       -2.9807098235        1.9503352349
 H       -12.9132342227       -3.4119555243       -1.5945982635
 H       -12.7501125427       -1.7454636245       -2.1587801088
 H       -14.2013775454       -2.2490533727       -1.2455911957
 H       -15.1092753261        4.7683473547       -2.5742159527
 H       -14.0383796532        5.2031029959       -1.2313021948
 H       -15.0390336119        3.6801232255       -1.2831845905
 H       -13.6755421125        1.6794054230       -4.0218227588
 H       -14.9709614942        2.9354216745       -4.0963050401
 H       -14.8583234609        1.8511048863       -2.7164325745
 H       -10.6115494923        8.2648961654       -6.7196950370
 H        -8.9930579695        7.4384951048       -6.3750376633
 H        -9.0567251624        9.1003315980       -6.7776085381
 H        -8.2197246774        9.6993808482       -3.3104755439
 H        -7.8659865609        9.9614649696       -5.0729106108
 H        -7.2852291812        8.5443885055       -4.3895494783
 Na       -9.5497715244        3.4109210330        0.0697904563
