117

 C       -10.5257035505       11.0674614373       -5.0506583150
 C       -10.7225270774        9.6918955965       -4.4716924611
 O       -11.7483597681        9.3720130971       -4.0084993266
 C        -9.5712713509        8.5311929340       -4.8123756625
 C        -9.9972338473        7.3125487245       -3.9131050620
 O        -9.3374945904        6.9875591346       -2.9558248196
 C       -11.1772247249        6.5722232172       -4.4058536162
 C       -11.7182491734        5.6961879254       -3.2328413371
 C       -12.6302468355        4.5832006947       -3.6521039887
 O       -12.9456690654        4.5148057417       -4.8190481290
 C       -13.2417030767        3.5014965504       -2.6740873560
 C       -12.2961921562        2.9496183635       -1.5548976324
 O       -11.0884876460        3.3418593912       -1.5831183392
 C       -12.7489759967        1.9993995849       -0.4280042325
 C       -12.6357222337        0.4995719977       -0.8413422114
 C       -13.2514288259       -0.4605760473        0.2354954295
 O       -14.1725629398       -0.1121758826        0.9274319689
 C       -12.7257817764       -1.9181815010        0.1970812485
 C       -11.1421971801       -1.8466452619        0.2035502571
 O       -10.5984537221       -2.4161662633       -0.7092188434
 C       -10.2898849338       -1.3880519546        1.3892031766
 C        -8.8550207730       -1.1240685695        0.9667643842
 C        -8.6019523116        0.2698830997        0.4294844410
 O        -9.4869556042        1.0565202232        0.1846060815
 C        -7.1491713024        0.6610122813        0.0546057005
 C        -6.6787859646        1.9607024133        0.7097555707
 O        -7.2241066221        3.0332877959        0.4157223245
 C        -5.4232391088        2.0037329007        1.6286980657
 C        -5.0669219030        3.4396431922        2.1968276089
 C        -5.3300007796        3.4364397613        3.7130130193
 O        -5.5647847721        2.4417871126        4.3485328764
 C        -5.3873946697        4.8636292803        4.2448553439
 C        -6.8713083102        5.5330468983        4.0111931603
 O        -7.0164249662        6.6680453090        3.7034802136
 C        -8.0399824234        4.6820876854        4.3658522122
 C        -9.4439708267        5.4026478814        4.1039324617
 C        -9.7484715540        5.2271708226        2.6177900568
 O       -10.1956319220        4.1429662605        2.2654631222
 C        -9.6560207518        6.4374542881        1.6791750427
 C        -8.4763157458        6.3134850326        0.6707373491
 O        -8.3872430535        5.4117119530       -0.1120574412
 C        -7.3702364264        7.3071357420        0.7489612550
 C       -11.0311745899        6.4645971864        0.8187189303
 C        -9.6303681668        7.7748279218        2.5490188276
 C        -5.2428065380        4.8239210068        5.8318178526
 C        -4.3524312750        5.8020618836        3.6259332218
 C        -6.0480366141       -0.4489796714        0.3592632056
 C        -7.2735382848        0.8796044222       -1.4804642499
 C       -13.2527154180       -2.7312895211        1.4212890106
 C       -13.1444701644       -2.6026657839       -1.1000823981
 C       -14.4308991248        4.2841036811       -1.8806788460
 C       -13.7113755956        2.2887006469       -3.4961357120
 C        -9.5050323715        8.1045055721       -6.2791449659
 C        -8.2775755308        8.9822216091       -4.2035747055
 H       -11.3080435672       11.6710856102       -4.7648111331
 H       -10.5494285264       11.1131656924       -6.1539102947
 H        -9.6032797118       11.5427160852       -4.7056843231
 H       -10.8621562010        5.8222981528       -5.1916502554
 H       -11.9272762126        7.1760313393       -4.8161800440
 H       -12.1646635771        6.4335653277       -2.5725712179
 H       -10.8432479940        5.3002983309       -2.6286598561
 H       -13.7691075180        2.1239750038       -0.1277794077
 H       -12.1294157149        2.2403026731        0.4040999546
 H       -11.6745391437        0.0589484888       -0.9796608701
 H       -13.0974730795        0.2733170298       -1.7700135382
 H       -10.2824439806       -2.3290276227        2.0589016455
 H       -10.6453060827       -0.4726525500        1.8403419006
 H        -8.5269968878       -1.8904612776        0.3005244474
 H        -8.2119362463       -1.2178827567        1.8490313913
 H        -4.5672392162        1.6389314576        0.9704411376
 H        -5.6112018478        1.2767713034        2.4064329782
 H        -5.7118873886        4.1456106482        1.6808877908
 H        -4.0193644716        3.7497078420        1.9041953903
 H        -8.0506915250        4.4063757682        5.4487629118
 H        -8.1536223922        3.6809967756        3.8611491131
 H        -9.3815551136        6.3852811743        4.4960566311
 H       -10.1609201487        4.9019487621        4.6855735642
 H        -7.6809834857        8.3060723584        0.3900168876
 H        -6.4873307401        7.0894536604        0.1588207637
 H        -7.0912738840        7.3372948221        1.8283930719
 H       -11.3766256491        5.5086655162        0.5194578374
 H       -10.8157399872        7.0043331919       -0.1507863299
 H       -11.7960876011        6.9681774665        1.3794980162
 H        -9.6491040874        8.5235546847        1.8422974104
 H        -8.6749456774        7.7833999589        3.0862468402
 H       -10.3870657077        7.8385682069        3.3033918097
 H        -5.3011078786        5.8701189214        6.2175046345
 H        -4.1760430577        4.4799674517        6.1002051686
 H        -6.0014460462        4.2023371285        6.3653020237
 H        -4.4272553436        6.7957119199        4.0233187003
 H        -4.5583593616        6.0191706195        2.5573870165
 H        -3.2891824978        5.5268589948        3.7442461353
 H        -6.2306506189       -1.0288553986        1.2251697561
 H        -5.0588026048        0.0204187949        0.2725079845
 H        -6.1256909241       -1.1935773170       -0.3334608654
 H        -6.2403312686        1.0148610265       -1.8284268230
 H        -7.8251266863        1.7895967724       -1.6660080289
 H        -7.8145597069        0.0407568039       -2.0001663577
 H       -13.7828507710       -3.6598417223        1.1143391126
 H       -13.9626409835       -2.0632613163        1.8755693459
 H       -12.3891047549       -2.9838744478        2.1770687217
 H       -12.9014793515       -3.7078926792       -1.1365632341
 H       -12.4813066969       -2.2015804780       -1.8621559685
 H       -14.1883075096       -2.4350851202       -1.3768453038
 H       -15.1812775590        4.7203255614       -2.5455646066
 H       -13.9210077086        5.0566079728       -1.3898201068
 H       -15.0278957037        3.6372322680       -1.2447808060
 H       -13.1132902902        1.4157441170       -3.2547605598
 H       -13.6521804969        2.5546569978       -4.5519109579
 H       -14.7369942490        1.9770732372       -3.3215370437
 H       -10.5013222722        7.7521226532       -6.4423187757
 H        -8.7483423235        7.3765110403       -6.5760400238
 H        -9.4179620811        8.9921361803       -6.9104408142
 H        -8.3843090735        9.0712899985       -3.1332434318
 H        -7.7919984182        9.8325829604       -4.7050409718
 H        -7.5005605975        8.1793658144       -4.3336995493
 Na       -9.5467657987        3.3754333903        0.0818699282
