117

 C       -10.3870709398       11.0902965801       -5.1989783203
 C       -10.7081027216        9.6445669792       -4.6996438653
 O       -11.7948853007        9.4183038880       -4.1607923062
 C        -9.5682505425        8.5739798466       -4.8154259906
 C       -10.0244305706        7.2841768546       -3.9581849723
 O        -9.4246692788        7.0426684654       -2.8936216972
 C       -11.2203285127        6.4630819172       -4.3314340577
 C       -11.7789332760        5.6571338349       -3.0802273951
 C       -12.6250760370        4.5445508881       -3.6322807955
 O       -12.9548901277        4.4924564034       -4.8268261560
 C       -13.1393828329        3.4941878524       -2.6132301002
 C       -12.1789392565        3.0046665261       -1.5371812084
 O       -11.0526948252        3.4071933395       -1.5640871230
 C       -12.7273638800        2.0089931622       -0.4556734629
 C       -12.7381615470        0.4991408664       -0.8270605983
 C       -13.3742054429       -0.4132433715        0.2618556318
 O       -14.2192081497       -0.0660256028        1.0499971117
 C       -12.7635079953       -1.9431014198        0.2278193270
 C       -11.1563560983       -1.9845131390        0.2014301974
 O       -10.5454193123       -2.3206709668       -0.8228825551
 C       -10.4069721251       -1.3930734172        1.4150320578
 C        -8.9077667021       -1.1119133043        1.0384648863
 C        -8.6046270170        0.2893428869        0.4482110065
 O        -9.5623925037        0.9624356995        0.1556286653
 C        -7.1084022184        0.6280549205        0.1062699946
 C        -6.6733151119        1.9756496659        0.7517913441
 O        -7.3066716356        2.9545571061        0.4354049091
 C        -5.4114327908        1.9903219873        1.5998585170
 C        -4.9691935326        3.3241335379        2.2572190653
 C        -5.3646638439        3.5015128412        3.7245556591
 O        -5.5322590031        2.5342582102        4.4737204962
 C        -5.4164780214        4.9352184872        4.2498981928
 C        -6.8887372730        5.4552832646        4.0333750063
 O        -6.8961262209        6.6218453053        3.6261534225
 C        -8.0449915604        4.6052570446        4.4470483434
 C        -9.3834212658        5.2990983553        4.1592666530
 C        -9.8444945815        5.2386351403        2.6553399005
 O       -10.0991721810        4.1280329373        2.2363587738
 C        -9.7177169527        6.5037544213        1.6984692907
 C        -8.4801676102        6.2273348604        0.7200005759
 O        -8.4883125858        5.3294816174       -0.0758855198
 C        -7.3942458468        7.3243232797        0.6365809503
 C       -10.9826334274        6.5617270753        0.8176846411
 C        -9.5683217440        7.8686697514        2.3947277633
 C        -5.2001475206        4.9376318727        5.7890063500
 C        -4.3952074400        5.7859341123        3.5490851774
 C        -6.1377530304       -0.5772584455        0.3154961995
 C        -7.1760674437        0.9647540852       -1.4177920112
 C       -13.2808797787       -2.6450605440        1.5826489982
 C       -13.2093792119       -2.6955949767       -1.0224992369
 C       -14.4261320778        4.2193186363       -1.9947304671
 C       -13.5622506429        2.2542493825       -3.4873147080
 C        -9.4931211432        8.2074858420       -6.3224009825
 C        -8.1804614442        9.1027026834       -4.2280889531
 H       -11.1978670072       11.7529162626       -4.9402649284
 H       -10.2771729802       11.2649853380       -6.2587200116
 H        -9.4947170467       11.4608072155       -4.6945649024
 H       -11.0773813722        5.6561873809       -5.0987606272
 H       -11.9666818575        7.1387317303       -4.7452633285
 H       -12.2239263155        6.3662662963       -2.3816007867
 H       -10.9377590908        5.2323476024       -2.5422417525
 H       -13.7361838813        2.1874649611       -0.0924554044
 H       -12.0965577172        2.2365169687        0.3754578516
 H       -11.7764665497       -0.0534070151       -0.9360145067
 H       -13.1317281907        0.2880253979       -1.7806809822
 H       -10.4516347285       -2.0680309700        2.2584473680
 H       -10.9016944430       -0.4135515735        1.5557963520
 H        -8.7056559967       -1.8591059259        0.2498653105
 H        -8.2370054537       -1.3857548560        1.8347223349
 H        -4.6310484451        1.7238672689        0.8631038222
 H        -5.4924521244        1.1095766079        2.3178343654
 H        -5.2707058609        4.1567660153        1.6084131725
 H        -3.8935363492        3.3061221378        2.1726173747
 H        -8.0416465641        4.3057639507        5.5107377725
 H        -8.0864406514        3.6824418007        3.9089282810
 H        -9.2685297102        6.3132626237        4.5602586702
 H       -10.1148323254        4.8282210003        4.7832989160
 H        -7.8297331428        8.2220027862        0.3396873721
 H        -6.6097383064        7.1391113367       -0.1365185736
 H        -6.8963098763        7.4213682357        1.6098474198
 H       -11.1778022562        5.5986074929        0.3789459550
 H       -10.8425762977        7.2371895799       -0.0393136071
 H       -11.7944626608        6.9316948884        1.4021451850
 H        -9.5096848953        8.5338892184        1.5532774179
 H        -8.6832422312        7.9394979885        3.0252406316
 H       -10.3390522969        8.0000425779        3.0811547994
 H        -5.7269946284        5.7534069119        6.3573816536
 H        -4.1528473958        5.1004282217        6.0002324199
 H        -5.5199486975        3.9418558642        6.1962586039
 H        -4.3855484431        6.7861142265        3.8438818649
 H        -4.5475793408        5.8351439612        2.4712292220
 H        -3.3450602154        5.4442578780        3.7299501389
 H        -6.4192318853       -1.1452362325        1.1355519966
 H        -5.1047725296       -0.1827433610        0.3361281936
 H        -6.1848210901       -1.2963372687       -0.4493368901
 H        -6.1974223183        1.2503259178       -1.7168144626
 H        -7.8634115995        1.8201194550       -1.5809384887
 H        -7.5879135072        0.1121802672       -1.9796509641
 H       -13.7346087395       -3.6526894154        1.4024181159
 H       -14.0555642671       -1.9715207720        1.9770260649
 H       -12.4686906479       -2.7261159897        2.2948458408
 H       -12.8283398311       -3.7190943592       -0.9655052906
 H       -12.7616662699       -2.3134923761       -1.9275339369
 H       -14.2649022532       -2.7372831486       -1.0852034622
 H       -15.0383312706        4.5669595018       -2.7733396950
 H       -14.0191741029        5.1081262879       -1.4254813731
 H       -15.1135290109        3.5502132834       -1.4507390821
 H       -12.8190751936        1.4560771843       -3.3348674028
 H       -13.5809274194        2.6223834618       -4.5382715448
 H       -14.4944523406        1.8046081506       -3.2984513914
 H       -10.4093173369        7.7231826470       -6.6176187841
 H        -8.6305160154        7.5051406653       -6.4860445150
 H        -9.3379142457        9.0811635332       -6.9066078695
 H        -8.2630646174        9.1896525342       -3.1419382535
 H        -7.8616074817        9.9607208699       -4.7346466167
 H        -7.3581511332        8.4044174689       -4.3304139217
 Na       -9.5496690953        3.3939559317        0.0516817966
