117

 C       -10.0509407709       11.0600127129       -5.8290422219
 C       -10.5922781487        9.6772419200       -5.3707644492
 O       -11.8250462560        9.4461898297       -5.3820073075
 C        -9.6389249696        8.5620011570       -4.8749193671
 C       -10.3983387517        7.8102445519       -3.7538268058
 O        -9.9848470232        7.8984474582       -2.5839269369
 C       -11.6002812180        6.9317317261       -4.0537776410
 C       -11.7835432274        5.7161173475       -3.1528422627
 C       -12.2676327266        4.4475594532       -3.8823950172
 O       -12.2269601594        4.3238209888       -5.0975862719
 C       -13.0715041282        3.4840659544       -2.9618633780
 C       -12.3222757633        2.9773154755       -1.6475019497
 O       -11.1176355651        3.1315893710       -1.5707323063
 C       -13.1552096549        2.1571691308       -0.6210129225
 C       -12.7290003897        0.6633485556       -0.6242189688
 C       -13.1640120991       -0.0581768261        0.6097969892
 O       -13.7243605989        0.4516242470        1.5688088959
 C       -12.8757001757       -1.5526649454        0.6757471236
 C       -11.3061128000       -1.8432212491        0.5842154959
 O       -10.8275594194       -2.1526792682       -0.5011905411
 C       -10.4079593953       -1.7980340505        1.8381113083
 C        -8.9398233827       -1.4367826081        1.3456499329
 C        -8.7145618569       -0.0021891124        0.5960191064
 O        -9.5566934095        0.8316849993        0.4554558482
 C        -7.2063118939        0.3633446555        0.3414847809
 C        -6.7723976762        1.4167906284        1.4583650444
 O        -7.5766187261        2.2833128664        1.7599678586
 C        -5.2459456316        1.4657918442        1.8158177866
 C        -4.7863788870        2.8072065453        2.3107603427
 C        -5.3963427208        3.2423293862        3.7193598995
 O        -6.1447159096        2.5349954125        4.4033966751
 C        -5.2115399481        4.8227200036        4.0599538256
 C        -6.6198418448        5.4483887854        3.6648531181
 O        -6.7470848248        6.1301478952        2.6441325747
 C        -7.8208514368        5.0725894311        4.4979346060
 C        -9.1495367338        5.7277529526        4.0371175022
 C        -9.5041223711        5.4473873970        2.6127378879
 O        -9.6765046783        4.2677325544        2.2866307381
 C        -9.6787428117        6.6130963266        1.5335417864
 C        -8.6471280721        6.4741298156        0.4418725382
 O        -8.4706651384        5.3660380175       -0.0568740836
 C        -7.9070258226        7.7023394429       -0.1492536252
 C       -11.0251152692        6.3538373176        0.8287129579
 C        -9.8063901188        8.0119700487        2.2707862591
 C        -5.0193882762        4.9493704882        5.6434841393
 C        -4.1448328538        5.4291003436        3.1718440338
 C        -6.3018743159       -0.9585585865        0.2879073978
 C        -7.0146269447        1.1294819159       -1.0603194897
 C       -13.4333994710       -2.1189314936        2.0359736110
 C       -13.4731306048       -2.3385475943       -0.4506146280
 C       -14.4055169491        4.2910907222       -2.7859826252
 C       -13.3001646743        2.2306757780       -3.8182266830
 C        -9.4166457678        7.7988593359       -6.1563950855
 C        -8.2695474416        9.0281658764       -4.2427341467
 H       -10.7865569162       11.7768244203       -6.2353305191
 H        -9.2138682530       11.0294650945       -6.5270918633
 H        -9.5561555560       11.5093551424       -4.9473534738
 H       -11.5360370593        6.5822208467       -5.1185254439
 H       -12.4731582357        7.4897933594       -4.1427428989
 H       -12.3457916070        6.0288109288       -2.2790542822
 H       -10.7613419149        5.5647792379       -2.7045309757
 H       -14.2663021936        2.3646495469       -0.6457681011
 H       -12.8730814745        2.7251519550        0.3214889736
 H       -11.6210892721        0.4657741943       -0.7712190205
 H       -13.0464194736        0.1505860136       -1.5343583439
 H       -10.4165883794       -2.7869199143        2.3423251754
 H       -10.7859905309       -1.1660273414        2.6287848550
 H        -8.6648138689       -2.2108941743        0.6142488127
 H        -8.1755713174       -1.5108384761        2.1665398760
 H        -4.7730817442        1.1118189935        0.8896907743
 H        -5.0703883185        0.6960821411        2.4949423719
 H        -4.9743886089        3.4423618753        1.4441445075
 H        -3.6740992022        2.7716352522        2.3613935656
 H        -7.7004572392        5.4600682495        5.5183275008
 H        -8.0628662721        4.0160376967        4.5648396906
 H        -8.9931429796        6.8185241617        4.2529792717
 H        -9.9571641158        5.3280585338        4.6720906006
 H        -8.6134491013        8.3370032903       -0.5442449833
 H        -7.0933999116        7.4645216817       -0.8601947703
 H        -7.4903629562        8.1837843518        0.7412955759
 H       -11.0737595358        5.2740559246        0.6009212681
 H       -11.0775892739        6.9198363297       -0.1423522565
 H       -11.9109994544        6.6486575513        1.3939558355
 H       -10.1110866400        8.8177602315        1.5551083754
 H        -8.8027106132        8.2593522944        2.7381215588
 H       -10.6688304881        8.0342833964        2.9683638412
 H        -5.3475681590        4.0258718664        6.1119898770
 H        -5.6594769445        5.6725807873        6.0355617382
 H        -4.0205614233        5.2130079411        5.9395519724
 H        -3.8119288900        6.3730995130        3.4399824243
 H        -4.5394798089        5.5413089856        2.1587105077
 H        -3.2511382441        4.7898014782        2.9732648972
 H        -5.8540821770       -1.2006382025        1.2498682567
 H        -5.3461782706       -0.8007496040       -0.2502357628
 H        -6.8447590268       -1.7662964602       -0.2630634810
 H        -6.0098426669        1.4488890975       -1.1325856193
 H        -7.6672636623        2.0098920179       -1.1320478535
 H        -7.1919006181        0.4634720466       -1.9183284511
 H       -12.8244055170       -2.9285074800        2.3705183567
 H       -14.4215110870       -2.5475493410        1.9324098418
 H       -13.5067646531       -1.4074289875        2.7960952621
 H       -13.4778875435       -3.3902643692       -0.1929801592
 H       -12.9410857891       -2.1106459690       -1.3402642086
 H       -14.4620529030       -2.0438920682       -0.6273299193
 H       -14.6245212265        4.7511924941       -3.6978869058
 H       -14.3396491126        5.0544794295       -1.9687816272
 H       -15.1732762141        3.5965710049       -2.3886343080
 H       -12.2951809654        1.7754582916       -3.9962902346
 H       -13.6613548553        2.4989032092       -4.8423774857
 H       -13.9802367244        1.5809674128       -3.3067186605
 H       -10.3781075733        7.5009217066       -6.5343501227
 H        -8.8036135320        6.8674910967       -6.0538574978
 H        -9.0386029684        8.4620140586       -6.9309397609
 H        -8.4623335698        9.7250349910       -3.4080933891
 H        -7.6317900400        9.5810010801       -4.8926381990
 H        -7.7882425185        8.0624693540       -3.9507661443
 Na       -9.5206962503        3.0863557794        0.2360037095
