117

 C       -10.0593296879       11.0193770284       -5.8576487522
 C       -10.6107206089        9.7363997031       -5.3348441331
 O       -11.7716119424        9.4619195534       -5.5568712970
 C        -9.6151657758        8.5870100115       -4.8546009899
 C       -10.4057137532        7.8530153632       -3.7512373358
 O       -10.1933286719        7.9958402886       -2.5636718396
 C       -11.6821696019        7.0233593909       -4.1028010566
 C       -11.6576197807        5.7584275041       -3.1940090550
 C       -12.1815671802        4.4982417658       -3.8687290588
 O       -11.9301098013        4.2466699565       -5.0123863106
 C       -13.0788693164        3.4928554483       -3.0353415825
 C       -12.3206768250        3.0462776804       -1.7389444137
 O       -11.1683096474        3.2632672890       -1.5456559355
 C       -13.1977655385        2.2730531932       -0.7101231868
 C       -12.6806733162        0.7656553606       -0.6310936892
 C       -13.0951496888        0.0435264151        0.7137090095
 O       -13.6227010252        0.6329470159        1.6291241467
 C       -12.8314253195       -1.5888463605        0.7770036409
 C       -11.3204543302       -1.8656092931        0.6286527199
 O       -10.9321110307       -2.1437509197       -0.4660628090
 C       -10.3448028852       -1.7150699672        1.7679312065
 C        -8.9405719581       -1.3110255844        1.4844166972
 C        -8.6812900265       -0.0446177628        0.7286445287
 O        -9.5967856492        0.7666897372        0.5002809964
 C        -7.2457149959        0.2780524145        0.3334128860
 C        -6.7747388241        1.3930737104        1.3784554686
 O        -7.5134666057        2.2575882194        1.8109858061
 C        -5.3320688222        1.3625490036        1.8977013684
 C        -4.8182316215        2.7218687543        2.4246002042
 C        -5.4369814255        3.2614980922        3.6032114607
 O        -6.1199481671        2.6049801825        4.3360784676
 C        -5.2556322241        4.7789601145        4.0095380025
 C        -6.6120023429        5.4248814681        3.6198767001
 O        -6.7017002526        5.9651847594        2.5282506133
 C        -7.7631304654        5.1615323720        4.5077330209
 C        -9.0873128642        5.8203212068        4.0149733823
 C        -9.4561731930        5.4551379027        2.6030486242
 O        -9.6234487556        4.3006582167        2.2442122739
 C        -9.8174123375        6.5619455633        1.5035097524
 C        -8.6998741930        6.4138428794        0.4577360379
 O        -8.4099518002        5.2886768772       -0.0210904467
 C        -8.0210814968        7.6731508116       -0.1925831977
 C       -11.1532121859        6.3369681389        0.7413171574
 C        -9.7842998268        8.0258780709        2.0566604943
 C        -5.0060949775        4.9089279632        5.5996704447
 C        -4.1149317516        5.4417846455        3.2246330974
 C        -6.3191409352       -0.9600762998        0.2557532339
 C        -7.1959950569        0.9488274019       -1.0598170223
 C       -13.3608311921       -2.0979907184        2.1049288570
 C       -13.5545777121       -2.2133769443       -0.4600125640
 C       -14.4268886377        4.1541270879       -2.6846058959
 C       -13.3276446112        2.1073028837       -3.9062446668
 C        -9.3510800126        7.6037529911       -6.0719928648
 C        -8.2703868341        9.1077185721       -4.3109530334
 H       -10.7935575576       11.8648470006       -6.0992599529
 H        -9.4861333926       10.7974165193       -6.7345854270
 H        -9.2785407240       11.3958711605       -5.2099773391
 H       -11.9559359405        6.8287280703       -5.1161281658
 H       -12.5332117215        7.6451098472       -3.8255719544
 H       -12.1674900329        6.0539676998       -2.2060385235
 H       -10.6204245439        5.6399012802       -2.8464856940
 H       -14.2833080823        2.3060175865       -0.8957930452
 H       -13.1124572444        2.8700602460        0.1936006826
 H       -11.5969552135        0.5712646816       -0.7389588184
 H       -13.0068172961        0.2704442748       -1.5137076605
 H       -10.2654595216       -2.6879008400        2.2351432745
 H       -10.7387204632       -1.1522176443        2.6827321946
 H        -8.4585763910       -2.1412688490        0.9411277820
 H        -8.4117677077       -1.2333228647        2.4261186525
 H        -4.7497808992        0.9173044483        1.1550557394
 H        -5.3531144486        0.6313746800        2.7196920604
 H        -4.8717473804        3.3868411730        1.5197758176
 H        -3.7495187231        2.5985435106        2.5816897401
 H        -7.5948321244        5.4390907320        5.6076956108
 H        -8.0352283275        4.0930876603        4.4649790580
 H        -8.9254876453        6.8756205603        4.0638261431
 H        -9.9043761451        5.5336284867        4.6439487542
 H        -8.7924241332        8.1577071517       -0.8220189892
 H        -7.1682147143        7.3236841774       -0.7747840351
 H        -7.6677104001        8.3704899754        0.5678362940
 H       -11.1080105924        5.2833287319        0.2802017794
 H       -11.1836803565        7.0433894162       -0.0514431441
 H       -12.1265128100        6.3886775958        1.3388860705
 H       -10.1898541648        8.7657411001        1.2977751314
 H        -8.8329452001        8.2876101090        2.3464953935
 H       -10.5668515989        8.1550086958        2.8011330775
 H        -5.2254365297        3.9875553863        6.1094523661
 H        -5.5271356205        5.7258520452        6.0381391910
 H        -3.9890685340        5.2094566118        5.7432112397
 H        -3.7538613714        6.4004903384        3.7009912184
 H        -4.3937130675        5.7566807148        2.2257784447
 H        -3.2569420429        4.8067295270        3.0513479272
 H        -5.7576529986       -1.0509530638        1.1430312167
 H        -5.5633724964       -0.8755907661       -0.4049859132
 H        -6.9457641650       -1.8682867753       -0.0456163959
 H        -6.3438030748        1.6150705201       -1.0413496968
 H        -8.0931988637        1.5829579327       -1.1319346713
 H        -7.0316980461        0.3503653127       -1.9175223039
 H       -13.2125736464       -3.1538028496        2.3349896504
 H       -14.4756966331       -1.9348822631        2.1806856195
 H       -12.9650201817       -1.5247390976        2.8917991909
 H       -13.4509029195       -3.2491401992       -0.3924812007
 H       -13.0914443429       -1.7812274968       -1.3606748411
 H       -14.6249574492       -1.9747866814       -0.5348579344
 H       -14.8624111303        4.3916727192       -3.6295668058
 H       -14.2912427828        5.0805858905       -2.1321885554
 H       -15.0263425962        3.5746967686       -2.0481281174
 H       -12.3240797331        1.6838557543       -3.9244607915
 H       -13.5452294047        2.2415459417       -4.9643689437
 H       -14.0596259425        1.4817971863       -3.3808872936
 H       -10.2634230561        7.3685408779       -6.6556636666
 H        -8.8103374455        6.6737870033       -5.8122689117
 H        -8.7459182657        8.1835003917       -6.7648510173
 H        -8.5430420454        9.8167246584       -3.4800873785
 H        -7.6433516854        9.7399030708       -4.9602655993
 H        -7.7037747595        8.2167748410       -4.0571257988
 Na       -9.5126448141        2.9624864880        0.4174771809
