117

 C        -9.9949461997       11.0344967567       -6.0389065275
 C       -10.6002551542        9.7292071792       -5.6202535695
 O       -11.7216016342        9.4062767051       -5.9992907703
 C        -9.6703033371        8.5703952059       -4.8220558482
 C       -10.5641120305        7.9907314658       -3.7052533600
 O       -10.3739768397        8.4405787876       -2.5673932200
 C       -11.6112290731        6.9177961541       -4.0394881450
 C       -11.6431346878        5.7603868632       -3.0902376635
 C       -11.9651337251        4.4279151398       -3.7890664035
 O       -11.4344536686        4.0253873816       -4.7790776368
 C       -12.9219934663        3.4487127484       -2.9871430464
 C       -12.2974145602        3.1328839636       -1.6214252073
 O       -11.2144160906        3.5758822931       -1.3666078979
 C       -13.0895386467        2.2762856978       -0.6298693825
 C       -12.3682730008        0.9043588146       -0.5484788798
 C       -12.8908179955        0.1617851749        0.7704623466
 O       -13.1650803183        0.8488368086        1.7239058340
 C       -12.9214574426       -1.3962773780        0.9197155326
 C       -11.3454208354       -1.8048808347        0.7625710597
 O       -10.8368662200       -1.9523547202       -0.3099162525
 C       -10.4927751435       -1.5964723509        2.0446655759
 C        -9.0263409380       -1.4935949675        1.6347893389
 C        -8.7333178916       -0.1628776947        0.8959411460
 O        -9.6112524541        0.6610470256        0.7710338527
 C        -7.2868827941        0.1573833482        0.3865177678
 C        -6.7908691392        1.3725216183        1.3035014382
 O        -7.4144332310        2.4325489983        1.3543187154
 C        -5.4639872853        1.2207922095        2.0626888658
 C        -4.8044599383        2.5449109441        2.3452229098
 C        -5.5286890596        3.1700227356        3.5333487654
 O        -6.1277428587        2.5130225431        4.3674783664
 C        -5.3313001402        4.7253525026        3.9225370798
 C        -6.5897649723        5.3579429589        3.4984242988
 O        -6.6955516131        5.7957727552        2.3508620648
 C        -7.7993741684        5.3220548669        4.4293305688
 C        -8.9416543125        6.1596017053        3.8430915662
 C        -9.5451364554        5.5941834740        2.6298847290
 O        -9.8077883414        4.3606229339        2.5934994277
 C        -9.8638004046        6.4823467814        1.3380962173
 C        -8.7191127577        6.1671260618        0.1942440813
 O        -8.5531417218        4.9848206005       -0.1514951439
 C        -8.0089013465        7.2756065041       -0.5875088263
 C       -11.2032181232        5.9390643966        0.7783448346
 C        -9.9565771045        7.9538121524        1.6158896507
 C        -5.1079219405        4.8264612756        5.4920562689
 C        -4.1547989901        5.3521399849        3.0962875729
 C        -6.3315644809       -1.0728690263        0.1946708838
 C        -7.4810264800        0.8112597501       -0.9706873320
 C       -13.5252974001       -1.7644161222        2.3060660046
 C       -13.7664251572       -1.9482091836       -0.2887153441
 C       -14.2270787996        4.2157070537       -2.9659215291
 C       -13.1460956624        2.1491638443       -3.8428988348
 C        -9.3130154746        7.4235890465       -5.8193754023
 C        -8.4137965774        9.2074993507       -4.1878105239
 H       -10.7880048749       11.8280592664       -6.1502285357
 H        -9.5580266290       10.8975461493       -6.9925502570
 H        -9.2555625881       11.5132705156       -5.4177877777
 H       -11.6144870843        6.4812429498       -5.0776315974
 H       -12.5751385171        7.3645362509       -4.0275088446
 H       -12.2516759415        5.9858503812       -2.2316358389
 H       -10.6584716214        5.5371083737       -2.6623865945
 H       -14.1533440737        2.2391365896       -0.9818180952
 H       -13.0247565433        2.5880596641        0.4630422436
 H       -11.2181615836        1.0005533975       -0.5998511675
 H       -12.6517362692        0.2181490571       -1.3582475813
 H       -10.6612192158       -2.3886603874        2.7567928882
 H       -10.8499260241       -0.7624359939        2.6235389003
 H        -8.8678994999       -2.3402511732        0.9396126802
 H        -8.2564340884       -1.5698149282        2.4431618772
 H        -4.8999562587        0.4522283972        1.5115542254
 H        -5.6262196397        0.8186987972        3.0581233228
 H        -4.8050932017        3.1975487843        1.4718041362
 H        -3.7708509005        2.2541611995        2.5559926758
 H        -7.6398857807        5.7825659882        5.3864293258
 H        -8.0930059606        4.3094299856        4.6119989417
 H        -8.4257800746        7.1533279163        3.6622189448
 H        -9.7264097673        6.3023169971        4.6340012344
 H        -8.7489065965        7.7357372240       -1.1748814985
 H        -7.2571807666        6.7094606791       -1.1667500046
 H        -7.5303423328        8.0123631641        0.0656415225
 H       -11.2352981079        4.8719429125        0.5581803962
 H       -11.5306401810        6.4859131052       -0.0565770279
 H       -11.8969500037        5.9461265938        1.5808455867
 H       -10.2759195254        8.6536197052        0.7569348946
 H        -9.0164465234        8.3775524748        1.9405873150
 H       -10.7221782929        8.1206531437        2.4131461099
 H        -6.0406858080        4.6987639507        6.0869441548
 H        -4.5180195643        5.6940673818        5.6634557573
 H        -4.4083153736        4.0240075947        5.8372503459
 H        -4.1308052534        6.4125410289        3.1679191520
 H        -4.1101353796        5.2153883899        2.0399498176
 H        -3.2107588419        4.9859879035        3.5366652996
 H        -6.3405480828       -1.7791008526        1.0835633842
 H        -5.3292472935       -0.7837510856        0.0015020699
 H        -6.7643496204       -1.7324035494       -0.7075922692
 H        -6.6355725415        1.1770410960       -1.4914379466
 H        -8.2894789817        1.5717211313       -0.8416883371
 H        -7.8379344340        0.0094049184       -1.6280747917
 H       -14.0682231189       -2.6989900379        2.2716518778
 H       -14.1968768120       -1.0366268399        2.8064377448
 H       -12.7731346442       -1.9441356454        2.9629838810
 H       -13.8057675632       -3.0296223296       -0.2694684830
 H       -13.4048932721       -1.5489299587       -1.2452974517
 H       -14.7845154439       -1.5850883032       -0.2037886536
 H       -14.3505335841        4.5274902581       -3.9830251469
 H       -14.2343255254        5.1466294524       -2.2819793047
 H       -15.0523502940        3.5172447555       -2.6721950608
 H       -12.1187516196        1.8703076909       -4.1453089725
 H       -13.6319372126        2.4357177527       -4.8005109163
 H       -13.7420873505        1.4457833372       -3.3303752550
 H       -10.1283631081        7.1659013896       -6.4603133507
 H        -8.9488307570        6.5258706741       -5.2822402964
 H        -8.4731669692        7.6967889427       -6.4113195032
 H        -8.6880456531       10.1563748875       -3.7402724487
 H        -7.6796896702        9.3841310076       -4.9003465823
 H        -7.9438052382        8.4578301259       -3.5970701710
 Na       -9.5677982514        3.1444098482        0.4997945830
