117

 C       -10.0820053581       10.9950211929       -6.3059020564
 C       -10.4898604438        9.5914880816       -5.9944951652
 O       -11.5072740482        9.0881032619       -6.3115802952
 C        -9.6333844531        8.7245303001       -4.9181140136
 C       -10.6149431069        8.1968954882       -3.8065130415
 O       -10.6242662383        8.6327397869       -2.6755277999
 C       -11.5230817641        7.0010822793       -4.1272374369
 C       -11.5261962790        5.9013587353       -3.0399250921
 C       -11.5852348749        4.4054809186       -3.6087729234
 O       -10.9109226709        4.0465204816       -4.5652486538
 C       -12.6202766472        3.4494846542       -2.9505696094
 C       -12.1529029044        3.1028282263       -1.4797237733
 O       -11.0500463564        3.2870130622       -1.1216624697
 C       -13.1315600979        2.4529901651       -0.5031386119
 C       -12.6170832455        0.9325061793       -0.4542030068
 C       -12.8302665252        0.3638694630        1.0523185574
 O       -12.7915830974        1.0147465876        2.0784142668
 C       -13.0203669319       -1.1643180281        1.1558790414
 C       -11.4728824158       -1.6790286363        0.9667618056
 O       -11.0963497245       -1.9363604659       -0.1409253786
 C       -10.5626244520       -1.5876507202        2.2262880452
 C        -9.1035524617       -1.5522426226        1.7982948759
 C        -8.7669263018       -0.1941242187        1.2820894548
 O        -9.5850557406        0.7042186276        1.3864986762
 C        -7.4889786831        0.0861553716        0.3650639667
 C        -6.9062041874        1.4498284985        0.9565001436
 O        -7.3702498717        2.5508365194        0.7239596959
 C        -5.5715043085        1.1587109869        1.9079023261
 C        -4.8424727817        2.3872952789        2.4778503320
 C        -5.5808234701        3.0458856239        3.7272556210
 O        -6.2995031663        2.4668125388        4.4482587610
 C        -5.3539298591        4.6351235589        3.8518247407
 C        -6.5863903402        5.4005087908        3.3352553972
 O        -6.7044157562        5.8150662859        2.2055123751
 C        -7.7910733806        5.6547285964        4.2859780686
 C        -8.9464108060        6.3924747261        3.5313620316
 C        -9.4307866423        5.6436213605        2.3510876657
 O        -9.4954420701        4.4358318433        2.4354708915
 C        -9.9652577847        6.3704062139        1.0212671941
 C        -8.9755581690        5.9144211865       -0.0805878647
 O        -8.9475929584        4.7530930216       -0.3809319238
 C        -7.9832672040        6.9376620079       -0.7932893454
 C       -11.3827560712        5.8848394393        0.7248608358
 C       -10.0321276159        7.8892176951        1.1864858022
 C        -5.1487132611        4.8027957085        5.3851572585
 C        -4.1737391947        5.1123315718        3.0439749012
 C        -6.5196205567       -1.0846536695        0.2541027959
 C        -8.0599030544        0.3904618912       -1.0887713025
 C       -13.4908470376       -1.5365527713        2.5963327500
 C       -13.9523938877       -1.6868677626        0.0258547059
 C       -13.9488048223        4.1385868383       -2.9053830107
 C       -12.6598306748        2.2050248234       -3.8989601184
 C        -8.8673468385        7.4878458757       -5.6616801487
 C        -8.5408338316        9.5330584527       -4.1748878419
 H       -10.4796527835       11.3790214187       -7.2743430096
 H        -9.0490249669       11.1352279486       -6.3197625460
 H       -10.4907809787       11.6998241399       -5.6005116035
 H       -11.2533750844        6.4685584597       -5.0897010460
 H       -12.5435357561        7.4180664883       -4.2262682208
 H       -12.2493730022        6.0692049854       -2.2561470031
 H       -10.5500086254        5.9027098571       -2.5881391459
 H       -14.1825658206        2.4058240734       -0.6968458553
 H       -12.9087111873        3.0171932989        0.3741302104
 H       -11.4938465147        0.9107412488       -0.5967496442
 H       -13.2198269283        0.4174781056       -1.1947360824
 H       -10.6215417474       -2.4003507312        2.9299661894
 H       -10.7931933153       -0.7110470143        2.8519621302
 H        -8.9047759241       -2.2854979679        1.0079280141
 H        -8.4808424579       -1.7660923293        2.6872144636
 H        -4.8843721285        0.5160194803        1.3006985345
 H        -6.0283177999        0.4839259315        2.6692622750
 H        -4.7228145817        3.0100007430        1.5948176527
 H        -3.8455618363        2.0871983000        2.7519193946
 H        -7.4502181902        6.2470033072        5.1218424050
 H        -8.2144416953        4.8014750898        4.7280848982
 H        -8.6018570407        7.4173052178        3.2386922079
 H        -9.7841987497        6.5404651272        4.2381049635
 H        -8.5526804674        7.7957532489       -1.1408140048
 H        -7.4567303682        6.3399861991       -1.5712419932
 H        -7.2068904113        7.2717536081       -0.0621279305
 H       -11.5320145665        4.7850419045        0.8949603296
 H       -11.5703626651        6.0772280770       -0.2677670931
 H       -12.1436082822        6.3231168476        1.3699417706
 H       -10.3083998340        8.3128298181        0.2181509892
 H        -9.1347502849        8.3152864184        1.4107691880
 H       -10.5939698939        8.2802170379        2.0019207512
 H        -5.4905908717        3.8569223792        5.8827611060
 H        -5.7690928486        5.6473631038        5.6992203482
 H        -4.0487138826        4.9668847989        5.6039849783
 H        -3.7139995089        6.0882843398        3.3522486267
 H        -4.5215588927        5.2004050450        2.0104935221
 H        -3.3384383480        4.4009322231        3.0812215779
 H        -6.5062078949       -1.6984541887        1.1582908675
 H        -5.6161887547       -0.6947694972       -0.1350415902
 H        -6.7233578627       -1.8473128346       -0.5219731623
 H        -7.2655186241        0.4873080649       -1.8233584498
 H        -8.6343670175        1.3569063948       -1.0900774627
 H        -8.7453922170       -0.4123506571       -1.3534169980
 H       -12.8869458013       -2.3625772701        2.9987142841
 H       -14.5642207064       -1.8886102802        2.6876932522
 H       -13.4158227460       -0.7636698001        3.3451040107
 H       -14.2961404412       -2.6981065432        0.1744766767
 H       -13.5116025413       -1.7047848536       -1.0142077918
 H       -14.8392100166       -0.9971952627        0.0908956831
 H       -14.3328859562        4.3461506463       -3.8959918681
 H       -13.9246986625        5.0357200068       -2.2893068781
 H       -14.6242400976        3.3861493746       -2.6105667424
 H       -11.7312786477        1.7040901259       -3.6403433695
 H       -12.7142481560        2.5738008010       -4.9326662459
 H       -13.5093045395        1.5862673354       -3.7028327222
 H        -9.5610880825        6.7617816427       -6.0875786633
 H        -8.1871364645        6.9091868861       -4.9926456891
 H        -8.2197757320        7.8434889135       -6.4453199653
 H        -9.0765152447       10.1299287097       -3.3579913791
 H        -8.1042959724       10.1980882231       -4.9223076837
 H        -7.7667523157        8.9230100131       -3.6755923725
 Na       -9.6354026251        2.9519992686        0.8523554534
