117

 C       -12.1533580841        6.0016576546       -9.3578612945
 C       -12.1236738410        6.1983352616       -7.9065324558
 O       -11.7058128805        5.2925034348       -7.2010856087
 C       -12.5037054246        7.4992444093       -7.2190464655
 C       -11.4228362866        7.6072474371       -6.0113239504
 O       -11.6053196636        7.1796551317       -4.8871309126
 C       -10.0595718188        8.1127973718       -6.4247687236
 C        -9.0877482122        8.3935863342       -5.2812799618
 C        -8.7211945391        6.9114126420       -4.6162555835
 O        -8.2857477575        6.0642386383       -5.3418122255
 C        -8.8855956263        6.6524546167       -3.0897674630
 C       -10.1650219312        5.7503965002       -2.7669649625
 O       -10.9032653699        5.9589015607       -1.8298030378
 C       -10.3492826107        4.3263926394       -3.4734842930
 C       -11.5711487896        3.5937079070       -2.9277872368
 C       -11.2256791963        2.7000872123       -1.7470593388
 O       -10.0624728246        2.6529168303       -1.3371590970
 C       -12.2785568241        2.0793273704       -0.7519507729
 C       -12.1727232721        3.0280393158        0.5347010899
 O       -11.9594018701        2.5379589133        1.6329200165
 C       -12.1523137557        4.5861041839        0.4400696457
 C       -12.1431549673        5.2129419843        1.8398670511
 C       -10.7733496658        5.0060304326        2.5030044671
 O        -9.8010486046        4.9938152373        1.7851584838
 C       -10.5366944795        5.1085263205        4.0614506337
 C        -9.8586384798        3.6305716734        4.4111911339
 O        -9.6400757212        2.8083768274        3.5581045555
 C        -9.7841800605        3.1599543274        5.8580684527
 C        -8.5057230737        2.3499694099        6.2236430548
 C        -8.9515721768        0.8957213843        6.6622845527
 O       -10.0858254867        0.7172565469        6.9331198787
 C        -7.8172272604       -0.1440966199        6.4463558219
 C        -7.4933620642       -0.1820101014        4.9664267739
 O        -6.3582409145        0.1092432150        4.5872721092
 C        -8.6005764080       -0.6142144203        3.9901797286
 C        -7.8755792029       -1.1123401240        2.7285762473
 C        -7.9330463087        0.0381197600        1.5595478381
 O        -8.9654664637        0.6671795870        1.6388389046
 C        -6.8314627278        0.5733461570        0.5439055942
 C        -6.3805070810        1.9210557789        1.2613901378
 O        -7.0965196180        2.8823311679        1.6039518552
 C        -4.8902025536        2.2011541155        1.6193102647
 C        -5.7114489376       -0.4240803657        0.2836777510
 C        -7.4085895756        0.9788822794       -0.7950293045
 C        -6.4379026282        0.2590794023        7.2296690265
 C        -8.4875295993       -1.4398145439        7.0019881155
 C        -9.5176910521        6.2227550528        4.3313209171
 C       -11.8600554491        5.2686245226        4.9311243074
 C       -13.7430655521        2.2089007751       -1.2669379847
 C       -12.1132942305        0.6198647620       -0.3788338458
 C        -7.5930704304        5.9080695607       -2.6916150732
 C        -8.9063734159        7.9833503052       -2.2755718038
 C       -12.5825077940        8.7814927556       -8.1236238537
 C       -13.9242669983        7.3111731326       -6.6196489751
 H       -11.8426963167        5.0640928955       -9.6682294322
 H       -11.6525549577        6.7698180931       -9.9084636485
 H       -13.1842927944        6.2077091335       -9.7740370858
 H       -10.2777199069        8.9287860348       -7.1265863567
 H        -9.6027537459        7.4423617499       -7.2040081464
 H        -9.4508638150        9.0109389932       -4.5154113135
 H        -8.1182840488        8.9107704273       -5.5792233473
 H        -9.3803714670        3.7778041209       -3.2455614113
 H       -10.5311757022        4.4966809353       -4.5986165079
 H       -12.0199263129        3.0512284238       -3.7914613199
 H       -12.3797513733        4.3527958682       -2.6850697117
 H       -13.0877976249        4.7414388080       -0.1436145130
 H       -11.3065759178        4.7549007255       -0.2764933505
 H       -13.0072411485        4.7958023921        2.4401235553
 H       -12.2326074304        6.2842053643        1.9496323095
 H       -10.7400590619        2.5202567270        6.0183920177
 H        -9.7809290382        4.0714550654        6.5516340659
 H        -7.8936119310        2.7749544560        7.0620972901
 H        -7.9061717518        2.2346279059        5.2967248146
 H        -9.2251395984        0.1878693306        3.6404630318
 H        -9.1789047419       -1.4390566774        4.3436777118
 H        -8.6386315732       -1.9168939047        2.3780110021
 H        -6.9094770604       -1.5024420326        3.0159274632
 H        -4.7316214152        2.3395705233        2.7250138804
 H        -4.6053159400        3.0823014507        1.1257432457
 H        -4.1673923288        1.4129874299        1.2479152545
 H        -6.1553716515       -1.1514811289       -0.3502539604
 H        -5.1523245871       -0.8449160246        1.1496042269
 H        -5.0812607567        0.1162565892       -0.4330289542
 H        -7.8247456242        0.0754011014       -1.3675158080
 H        -6.6261609252        1.4446983932       -1.4145108323
 H        -8.2439663520        1.6806430460       -0.7267663098
 H        -6.4441525193        0.0236661163        8.2926016033
 H        -6.2500637041        1.3860418089        7.1746861459
 H        -5.6172299094       -0.2465778276        6.6547519276
 H        -8.4125570934       -1.5215832254        8.0505008131
 H        -8.0778711438       -2.3293307584        6.5967003461
 H        -9.4868354379       -1.4649704491        6.7078315744
 H        -9.9605258203        7.2230961951        4.1182777080
 H        -8.8275132237        6.0626004987        3.5193060962
 H        -8.9680333533        6.1535625803        5.2071398129
 H       -11.5730063014        5.7407469731        5.9037852152
 H       -12.3000035731        4.2633212300        5.0392586131
 H       -12.4641278745        6.0797547941        4.5765584930
 H       -14.3645968030        1.7303955551       -0.5833998587
 H       -13.8335448557        1.7032907203       -2.2055675953
 H       -14.0547154733        3.2522428573       -1.5291518150
 H       -11.0748600573        0.4794946025        0.0162724452
 H       -12.3486630803       -0.1577509615       -1.1406376065
 H       -12.8330102330        0.3462573961        0.3926650087
 H        -6.7373825616        6.5622349946       -2.6642263260
 H        -7.4280643683        5.0445086871       -3.3320497608
 H        -7.6719568970        5.4309556999       -1.7219573085
 H        -7.9070343883        8.4236207349       -2.2749007058
 H        -9.1889156452        7.8114908121       -1.2123859319
 H        -9.5258743075        8.7378126730       -2.7450107839
 H       -11.6414330016        9.1716903090       -8.5070174426
 H       -12.9165464395        9.6360271796       -7.4551774381
 H       -13.1762699803        8.6725331389       -8.9639594154
 H       -14.7141693607        7.3370292603       -7.3574380193
 H       -14.1314518620        8.1426838690       -5.8907601264
 H       -13.9641703641        6.3902829395       -5.9744422727
 Na       -9.3660270845        2.7906185410        1.3108916091
