117

 C       -10.1305695252       10.9613544920       -6.3707447931
 C       -10.4978564377        9.5577840796       -5.9279105554
 O       -11.4612946598        9.0365775605       -6.4251428054
 C        -9.5716978229        8.7817497774       -4.8769172479
 C       -10.5245468060        8.1302828467       -3.8312873417
 O       -10.6211303858        8.6657454764       -2.7601485792
 C       -11.4765777799        6.9243518375       -4.1990394748
 C       -11.4471298756        5.8934398099       -3.0483321134
 C       -11.5140924848        4.4778728910       -3.6248933288
 O       -10.7486183950        4.1486736805       -4.5020587259
 C       -12.6291041673        3.4532268999       -2.9807997329
 C       -12.1535990528        3.0536606559       -1.5004023805
 O       -10.9396179597        3.2372151755       -1.2824702668
 C       -13.0510081395        2.4305562022       -0.4364961310
 C       -12.6986385620        0.8722408214       -0.3014045775
 C       -12.8755941891        0.3987351023        1.0919720335
 O       -12.7550067948        1.1325260649        2.0475296019
 C       -13.0300608569       -1.1668972247        1.2507377153
 C       -11.5662895964       -1.5961325572        0.9701956222
 O       -11.1442979023       -1.9754458371       -0.1381848240
 C       -10.6638736504       -1.6104974002        2.2336384848
 C        -9.1176488368       -1.5865328589        1.9069045584
 C        -8.7998305508       -0.2372497149        1.2961814925
 O        -9.6106775261        0.6858090359        1.4736264985
 C        -7.5065558588        0.0768925240        0.3905504918
 C        -6.8490901166        1.3395169040        0.9436464206
 O        -7.2649496629        2.4317137609        0.6996207772
 C        -5.6872876321        1.1816525423        1.9024963999
 C        -4.9764846003        2.4231574843        2.3967878576
 C        -5.6276736398        3.1106456154        3.5925987216
 O        -6.3573921118        2.4616612483        4.3316282644
 C        -5.3376961726        4.6065103531        3.8538258563
 C        -6.6584839564        5.3915172962        3.2484055700
 O        -6.6757706680        5.7891171562        2.1024665619
 C        -7.7824690076        5.6344137340        4.2445832114
 C        -8.8717348080        6.4894985264        3.5443699001
 C        -9.3813581338        5.6965036811        2.3317341705
 O        -9.4272579659        4.5099024718        2.4165747846
 C        -9.8966089706        6.4059778846        1.0364513099
 C        -8.9608980156        5.8979511164       -0.1077449317
 O        -8.9966616376        4.7358798130       -0.4438091084
 C        -8.0732311537        6.8814990454       -0.7916606726
 C       -11.3263724437        5.8218158396        0.8106104922
 C        -9.9894427419        7.9635819911        1.1248885335
 C        -5.1970244600        4.8348760861        5.4101350507
 C        -4.1088084022        5.2228918572        3.1390592692
 C        -6.5296224286       -1.0857679314        0.2480979097
 C        -8.3352404944        0.3440210953       -0.9496356136
 C       -13.4258777453       -1.5962713174        2.6497033897
 C       -14.0123291803       -1.6979718105        0.2387851515
 C       -14.0722352852        4.1064086471       -2.9776475836
 C       -12.6426656743        2.1253995242       -3.8013208227
 C        -8.8157868872        7.5863712814       -5.5146715677
 C        -8.4682522919        9.7110943180       -4.2523093593
 H       -10.6035831291       11.1235766605       -7.3014579013
 H        -9.0775549542       11.2447086539       -6.4931005131
 H       -10.5956109768       11.7289429987       -5.7618476352
 H       -11.2054452043        6.4917953483       -5.1243237711
 H       -12.5122325190        7.3355533628       -4.2215857511
 H       -12.3090107454        6.0315588225       -2.3595929714
 H       -10.5490248887        5.9842641828       -2.5020861368
 H       -14.1630383329        2.5654082014       -0.6281811264
 H       -12.7200106548        2.9997064202        0.4547655722
 H       -11.6006480059        0.7863006202       -0.4914908928
 H       -13.3891863183        0.3090073079       -0.9536556503
 H       -10.7928144081       -2.5223342402        2.7554855272
 H       -10.8571263513       -0.8187765253        2.9908600449
 H        -8.7825391352       -2.4236588876        1.2386719825
 H        -8.5724576905       -1.6035664637        2.8593275829
 H        -5.0244832061        0.4635417951        1.5176371189
 H        -6.2187472999        0.6999286886        2.7646691610
 H        -4.7781096703        3.0773869940        1.5116169217
 H        -4.0000194286        2.0740333719        2.7237107357
 H        -7.3369437264        6.0155209021        5.1567504483
 H        -8.2776657493        4.7303283799        4.5416154650
 H        -8.4361033120        7.4685664865        3.2539532673
 H        -9.7629290967        6.7343987663        4.2258392601
 H        -8.6738526674        7.7478948310       -1.2193730066
 H        -7.5511809145        6.2780077212       -1.4899713427
 H        -7.3591772510        7.2316524430       -0.0640759699
 H       -11.2721773510        4.7644455174        0.7248183488
 H       -11.7530063938        6.1955732300       -0.1201043996
 H       -12.0325796786        5.9969794593        1.6167523510
 H       -10.4334026404        8.3248020247        0.2268527652
 H        -9.0487553131        8.5563131674        1.3100912626
 H       -10.4919971750        8.3300787757        2.0310943025
 H        -5.8243955170        4.0946498516        5.9368461405
 H        -5.5514665904        5.8963554862        5.6409244086
 H        -4.1339608503        4.6656974477        5.6550876097
 H        -4.0097014430        6.3240922743        3.3705676046
 H        -4.2287921639        5.1067643738        2.0632608019
 H        -3.1834171143        4.8077528208        3.4321523441
 H        -6.2918527019       -1.5211569124        1.2542810505
 H        -5.6735804819       -0.7400122718       -0.4703275401
 H        -6.8560529150       -1.9249203253       -0.2663342798
 H        -7.7572379416        0.8613854523       -1.7674484650
 H        -9.1885181487        0.9789647727       -0.7573667488
 H        -8.7495577733       -0.6165477497       -1.2341832122
 H       -12.8553839148       -2.3819592867        3.0777595841
 H       -14.4131888103       -1.8795176454        2.7015424736
 H       -13.3624350678       -0.7434641412        3.3926242956
 H       -14.2669740543       -2.7388859690        0.3642052847
 H       -13.6208659628       -1.6644118799       -0.7893182858
 H       -14.9466104372       -1.0999982989        0.3617295331
 H       -14.3257721252        4.3981956172       -4.0596584838
 H       -14.0302935680        5.0041409322       -2.3945565840
 H       -14.8781704930        3.4152521601       -2.7737493421
 H       -11.7204790071        1.6583662134       -3.5506679782
 H       -12.8743220230        2.3208698583       -4.8256337714
 H       -13.4518196948        1.4812900065       -3.3629689042
 H        -9.4515929872        6.9569611630       -6.1584137100
 H        -8.3131535168        6.9311126328       -4.8466949815
 H        -8.0611909498        8.0214332570       -6.1673077416
 H        -9.0442955839       10.4694628926       -3.7658080045
 H        -7.8096763488       10.1394984864       -5.0295611448
 H        -7.9880451604        9.2481084728       -3.4186487706
 Na       -9.6235547824        2.8869846221        0.7891062379
