117

 C       -10.1314698531       10.9410017367       -6.4121449815
 C       -10.4168224836        9.4999713298       -6.0031567603
 O       -11.4039790368        8.8254702041       -6.4468237634
 C        -9.5292757836        8.8645083406       -4.9453871269
 C       -10.5543718028        8.2252095059       -3.8051128532
 O       -10.6050203717        8.6708120406       -2.6580117201
 C       -11.3404342929        6.9879821733       -4.2308987146
 C       -11.4007437493        5.9501727346       -3.0495576898
 C       -11.5265821297        4.4962560231       -3.5854802741
 O       -10.7378476777        4.1099592241       -4.3878116575
 C       -12.5650078897        3.4495603154       -2.9845245979
 C       -12.1154282685        3.0874324550       -1.5523776075
 O       -10.8453461640        3.1201337889       -1.4355174882
 C       -12.9624920343        2.4540819028       -0.5010305706
 C       -12.7837760414        0.9471119629       -0.3156835938
 C       -12.9222603249        0.4836106009        1.1674388844
 O       -12.7767920335        1.2209244748        2.0959778257
 C       -13.0377619538       -1.1558520742        1.3983707940
 C       -11.5488228617       -1.7391679796        1.0362641754
 O       -11.2017402416       -1.9417769097       -0.1096219656
 C       -10.6561117062       -1.8083585639        2.2530777494
 C        -9.0836649350       -1.6329282382        2.0021733350
 C        -8.8488178907       -0.1958132911        1.4176893362
 O        -9.6333838550        0.7075254283        1.6315611764
 C        -7.7181513331        0.0026383398        0.4033246139
 C        -6.8717891933        1.2855218804        0.9681248776
 O        -7.1905029824        2.4219141787        0.6532024817
 C        -5.6992222293        1.0909186491        2.0077563931
 C        -5.0625887822        2.4635631195        2.2374788522
 C        -5.6963348501        3.1691320811        3.3978454808
 O        -6.4126610590        2.5126746592        4.2113230196
 C        -5.3839724516        4.7086284396        3.8277463856
 C        -6.6162640946        5.4555083842        3.3145221190
 O        -6.6032875993        5.6672479047        2.0990172328
 C        -7.7974358957        5.6761365070        4.2110151134
 C        -8.8001079522        6.5570677864        3.5277802337
 C        -9.3940154134        5.7762416914        2.3530470490
 O        -9.3774340227        4.5416566336        2.4512377119
 C        -9.9098691467        6.4038168345        1.0708157395
 C        -8.9468258552        5.9386229744       -0.1857957463
 O        -8.9540640554        4.7473410931       -0.5249628824
 C        -8.0875843594        6.9410005488       -0.8619940288
 C       -11.3267923769        5.8556401566        0.8845170969
 C        -9.9451031386        7.9420663732        1.1070122794
 C        -5.2448892140        4.8734884408        5.3753968906
 C        -4.0664285077        5.2803380012        3.2215919056
 C        -6.7014505048       -1.1314426853        0.2187327411
 C        -8.3704270357        0.2995795868       -0.9764872166
 C       -13.5066236127       -1.5597958290        2.8062355155
 C       -14.0584763409       -1.8188749603        0.3718168576
 C       -14.0674226889        4.0363828436       -3.0650764869
 C       -12.6229612135        2.0575421000       -3.7187462762
 C        -8.7176365889        7.6887029872       -5.5761348725
 C        -8.5638921707        9.8324865964       -4.2819037628
 H       -10.6364039984       11.2564233225       -7.2952447183
 H        -9.0601648508       11.2113685516       -6.5796002183
 H       -10.5207428520       11.6459255681       -5.6712076299
 H       -10.7335255416        6.5854791791       -5.0326020093
 H       -12.3524832552        7.2205740552       -4.5029450496
 H       -12.2655016255        6.1549369463       -2.4112757600
 H       -10.4711430361        6.0440827550       -2.4492162896
 H       -14.0343269983        2.6897017056       -0.7750401964
 H       -12.6874526012        2.9509261807        0.5085176902
 H       -11.7331026383        0.8095936476       -0.5043197214
 H       -13.5354038403        0.3935279716       -0.9163402283
 H       -10.7803584810       -2.7440966070        2.8493182240
 H       -10.9187138714       -0.9976149924        2.9195667071
 H        -8.7818439902       -2.3057684908        1.1885155492
 H        -8.5031177833       -1.8357774721        2.9120966583
 H        -5.0473128700        0.3921254985        1.5297538082
 H        -6.0973402371        0.6869351900        2.9158200576
 H        -5.2572391123        3.0868019863        1.3497067460
 H        -3.9448558626        2.3911361610        2.3490250863
 H        -7.4213908277        6.0042311402        5.1960549478
 H        -8.3095393465        4.6754544359        4.4211553404
 H        -8.2934523715        7.4760945213        3.2540136708
 H        -9.6223166865        6.8466429129        4.2111175695
 H        -8.7337460147        7.6929222825       -1.3048035218
 H        -7.4899018157        6.3845243823       -1.5638620111
 H        -7.4587386198        7.3624056798       -0.1071428498
 H       -11.2549652468        4.8494465443        0.5430302851
 H       -11.9524898192        6.4123550468        0.1114565233
 H       -11.9264616374        5.8470739515        1.7869402163
 H       -10.4320031578        8.3478359451        0.2103615629
 H        -8.9507368846        8.4847522304        1.2856381740
 H       -10.3938985981        8.3543258441        2.0273313791
 H        -6.1915816441        4.6697009201        5.8803810131
 H        -4.9155191007        5.8807318998        5.6232511130
 H        -4.5439351069        4.1182339170        5.6227838939
 H        -4.0665899333        6.3266763294        3.3496057071
 H        -3.8873116923        5.0117606312        2.1769560937
 H        -3.2080497090        4.9321861837        3.8035076872
 H        -6.1871188335       -1.3239146470        1.1676630242
 H        -6.1144643914       -0.9523258972       -0.6864585367
 H        -7.1004988721       -2.1441667640        0.0026870450
 H        -7.6148908996        0.8884265414       -1.4955939876
 H        -9.2514249600        0.9035945133       -0.9593216857
 H        -8.6516617976       -0.6407968616       -1.4790482996
 H       -13.2590995957       -2.5454381215        3.1416557178
 H       -14.5638761041       -1.4427551716        2.8428580461
 H       -13.1788230459       -0.8843824256        3.5670737681
 H       -14.1666729819       -2.9032093627        0.6159565278
 H       -13.6538908881       -1.8445663860       -0.5999862886
 H       -15.0348013552       -1.4180511088        0.4226347869
 H       -14.2393258667        4.3817462035       -4.0787676527
 H       -14.0623445282        4.9355120866       -2.4290650412
 H       -14.9305141835        3.3192534023       -2.9250766052
 H       -11.6325929493        1.6077193936       -3.6915720228
 H       -13.1216840234        2.2733997170       -4.6536207022
 H       -13.2829406521        1.3917717341       -3.1318379196
 H        -9.2830906013        7.2043428878       -6.3575729877
 H        -8.4268259115        6.9101129280       -4.9070987913
 H        -7.8258158606        8.0729255525       -6.0961822338
 H        -9.0684669082       10.7111516625       -4.0521648326
 H        -7.6811059777       10.0140889384       -4.8565025882
 H        -8.4599436940        9.5052165061       -3.2555857835
 Na       -9.6314516040        2.8221583491        0.6509520313
