117

 C       -10.3505641406       10.7982818290       -6.6273438734
 C       -10.4605528838        9.4146888659       -6.0588342874
 O       -11.1414046907        8.6206032490       -6.5858415682
 C        -9.4780961124        8.9264381153       -4.9049121054
 C       -10.3393722264        8.1767228693       -3.7711074956
 O       -10.4258048130        8.6108696921       -2.6564570609
 C       -11.0758329951        6.8195204838       -4.2497185622
 C       -11.5515427292        5.8674083297       -3.1390201768
 C       -11.4489143192        4.4370087009       -3.5804399268
 O       -10.6494168979        4.0673543680       -4.4176498173
 C       -12.5629226942        3.3790600195       -2.9437534519
 C       -11.9908708112        2.9318250472       -1.5815626144
 O       -10.8158814582        2.7764807361       -1.4295302120
 C       -12.9303115946        2.4817442846       -0.3246284096
 C       -12.9000668821        0.8552255172       -0.2880777231
 C       -13.0564872986        0.4423528435        1.1776601927
 O       -12.9708614065        1.2215880932        2.1002867586
 C       -13.0867206563       -1.1093621254        1.5579258810
 C       -11.6877847918       -1.7028112000        1.3233705878
 O       -11.2036000203       -1.8230438776        0.1961746272
 C       -10.6768885016       -2.0827672808        2.4698690408
 C        -9.2452369298       -1.7981183680        2.0154828405
 C        -9.0072720360       -0.2945027232        1.5376523009
 O        -9.6365580992        0.7233487795        1.8574553189
 C        -7.8537742231       -0.0782157121        0.4569401295
 C        -7.0002531428        1.2855004637        0.8727330188
 O        -7.4651022661        2.3282256080        0.5093913290
 C        -5.7083729484        1.2346723669        1.7692569521
 C        -5.1705375276        2.6551311479        2.1318130059
 C        -5.7729924613        3.2583014274        3.4339868137
 O        -6.5642087748        2.6483214192        4.0574784260
 C        -5.3194099181        4.6834717795        3.8744218296
 C        -6.4921006774        5.4573622859        3.3058291866
 O        -6.5863011559        5.6752723702        2.1181612367
 C        -7.6357173785        5.9987361889        4.2173112432
 C        -8.8027831867        6.5092437734        3.3672855891
 C        -9.3279583039        5.6566791144        2.2340337073
 O        -9.4329642681        4.4491938302        2.2505520974
 C        -9.8638258596        6.4736338736        1.0097560203
 C        -9.0066435872        6.0360545673       -0.2567458322
 O        -8.8342031849        4.8840487142       -0.5673473941
 C        -8.1731525667        7.1408453649       -0.9915441091
 C       -11.3099406272        5.9909990199        0.7408169076
 C        -9.9243741280        8.0468000729        1.1503256949
 C        -5.1697701350        4.6024399033        5.4244931155
 C        -3.9415898130        5.1767745355        3.1986161302
 C        -6.9704272165       -1.3736298724        0.3408798985
 C        -8.3011122478        0.3724046228       -0.9931057832
 C       -13.6032858214       -1.1082249741        2.9987478529
 C       -13.9631298322       -1.8532254827        0.5774610305
 C       -13.9994662837        4.0197921220       -2.8856187746
 C       -12.4733038217        2.1087052612       -3.9295214212
 C        -8.4977278189        7.9525529528       -5.5707895077
 C        -8.7366732257       10.0679585491       -4.1291362395
 H       -10.9999347155       11.0211231595       -7.4835488102
 H        -9.3461479066       10.8364139927       -7.0334783230
 H       -10.3911831832       11.6735591025       -5.9694859382
 H       -10.4226734172        6.3432256395       -5.0093581941
 H       -12.0642041025        7.2252122973       -4.6126030210
 H       -12.5751364129        6.1629191420       -2.8195638413
 H       -10.8846766239        6.0087572668       -2.2778238182
 H       -13.9386754305        2.8102065910       -0.3946892149
 H       -12.5411495787        2.7018444516        0.6295867986
 H       -11.8693596145        0.6036163136       -0.5555210309
 H       -13.7334356511        0.4384192488       -0.7975161262
 H       -10.7248484011       -3.1448144387        2.6583793461
 H       -10.7307417983       -1.5398594767        3.4448916401
 H        -9.0168999480       -2.4116438580        1.1537444003
 H        -8.5172307749       -1.9584576765        2.8077905369
 H        -4.9825751041        0.5680920302        1.2487993230
 H        -6.0070845613        0.8125619636        2.7650996577
 H        -5.3136644326        3.4128680813        1.3500316322
 H        -4.1178900621        2.5179624927        2.2163217501
 H        -7.2298445580        6.8193405983        4.8389049006
 H        -7.9051922582        5.2294016662        4.9177589346
 H        -8.3713247348        7.4331742299        2.9939882919
 H        -9.6272811136        6.8202476146        3.9754019252
 H        -8.8654267244        7.8561534875       -1.4762367554
 H        -7.5495103761        6.6597572593       -1.7168149560
 H        -7.5973010170        7.6309270678       -0.2045474889
 H       -11.3352178838        4.9167913449        0.4028189657
 H       -11.9074322330        6.5595935651        0.0654230420
 H       -11.9160971631        6.1250117788        1.6830203187
 H       -10.3444907025        8.5068205105        0.2805756349
 H        -9.0135388985        8.5369175750        1.3903069891
 H       -10.5884166262        8.3240342155        1.9741786999
 H        -6.0759647871        4.7737328689        5.9144576877
 H        -4.5560211118        5.4651586605        5.6563404447
 H        -4.7091731006        3.6733761454        5.6835853755
 H        -3.7217995947        6.2503439446        3.5438091795
 H        -3.9433150661        5.0299112695        2.1216625633
 H        -3.1535039175        4.5290493392        3.5667097755
 H        -6.7118426396       -1.8695423501        1.2788123373
 H        -5.9760463718       -1.1586983691       -0.1595592151
 H        -7.4066425426       -2.1259768786       -0.2401373516
 H        -7.4630621212        0.7893101418       -1.5376362376
 H        -8.9936070477        1.2036112705       -0.8969901827
 H        -8.8636519124       -0.3918775516       -1.4498689210
 H       -14.0654376393       -2.0599292596        3.2853143107
 H       -14.2849075792       -0.3003058224        3.2792548198
 H       -12.7112210216       -1.0006745276        3.7250320307
 H       -14.1205496025       -2.8490292886        0.8367683387
 H       -13.5074263908       -1.8028364058       -0.4246273765
 H       -14.9848214291       -1.4413430233        0.6094028142
 H       -14.2879622825        4.3212450376       -3.9180539461
 H       -14.0750923989        4.8760006989       -2.2356205132
 H       -14.6879001740        3.2798991709       -2.5774999282
 H       -11.4107511155        2.1343929467       -4.0669341977
 H       -13.0177624521        2.4295228652       -4.8131460389
 H       -12.7186420554        1.1346178703       -3.5100729221
 H        -8.8985810250        7.2598991536       -6.3318605183
 H        -8.1246124662        7.3479680858       -4.7292035289
 H        -7.6899448677        8.4479577854       -6.0867821840
 H        -9.3500748563       10.8934310925       -3.7272485312
 H        -7.9473412649       10.4111244426       -4.8209405395
 H        -8.4157849534        9.7108150185       -3.1734130891
 Na       -9.5422141953        2.8857435667        0.5172114050
