117

 C       -12.2041045468        6.1028225151       -9.4931540858
 C       -12.0631345018        6.1117131363       -7.9745014016
 O       -11.7077889013        5.1316423014       -7.2702412337
 C       -12.4668395783        7.4241130347       -7.1249189784
 C       -11.3860403387        7.5866117642       -6.0073019087
 O       -11.5703610636        7.1522257319       -4.9070309422
 C       -10.0359774207        8.1309376659       -6.5201984154
 C        -9.0253794394        8.2815606195       -5.3582795788
 C        -8.8598065081        6.9494987275       -4.6972487540
 O        -8.5898957291        5.9731553052       -5.3676760198
 C        -8.9689515613        6.6658345284       -3.1530770189
 C       -10.2245527461        5.6701709510       -2.7344429235
 O       -10.8759987205        5.9082820731       -1.8047265583
 C       -10.3771124735        4.2440826925       -3.4625727802
 C       -11.6320449585        3.4973134801       -2.8985680077
 C       -11.2529644199        2.6845084750       -1.7012456121
 O       -10.0839011642        2.5526456608       -1.3033189462
 C       -12.3297606149        2.0943724274       -0.7027237465
 C       -12.1623609406        2.9725440950        0.5423413977
 O       -11.8932221882        2.3893833792        1.6105934567
 C       -12.1464948341        4.5545640893        0.5300421923
 C       -12.1266318638        5.2641036133        1.8121688439
 C       -10.7458090480        5.1706165938        2.5042093852
 O        -9.7203298410        5.0523971824        1.8314561471
 C       -10.4436340091        5.0360208222        4.0448928085
 C        -9.8913374651        3.6534872426        4.4376517619
 O        -9.5075628062        2.8934578322        3.6353207266
 C        -9.8129091217        3.3847932683        5.9669046560
 C        -8.5815872840        2.5636946693        6.3280202939
 C        -8.9283661992        1.1118042795        6.6415437441
 O        -9.9865058373        0.7415743737        7.1083923535
 C        -7.8347677054       -0.0553807596        6.4243302087
 C        -7.2968761672       -0.1252648401        4.9966765925
 O        -6.2471906264        0.2704760593        4.5421061382
 C        -8.3838972494       -0.5060477255        3.9907774897
 C        -7.8913978045       -1.0560278210        2.5351192145
 C        -7.9533531875        0.1394360011        1.6143538215
 O        -9.0461599456        0.6213818153        1.5146882914
 C        -6.7983636501        0.6223642011        0.6504022343
 C        -6.3143260464        1.9399651648        1.2643832280
 O        -7.1657347141        2.7897858467        1.5159199494
 C        -4.7856160936        2.2626791085        1.5706268415
 C        -5.7067655813       -0.4717934929        0.2836639737
 C        -7.5085516085        1.0357906055       -0.6581176953
 C        -6.5521670919        0.3665592355        7.3020181089
 C        -8.4737838809       -1.4193809720        6.8789681619
 C        -9.4902550348        6.2095433043        4.4219111960
 C       -11.7050020897        5.2571503720        5.0110330727
 C       -13.8380383413        2.2314921071       -1.2200451490
 C       -11.9722834169        0.6175781564       -0.3221743824
 C        -7.7472980799        5.8274938390       -2.7702181818
 C        -8.9456839715        7.9589057414       -2.3190682342
 C       -12.6012631112        8.5951704644       -8.0609144556
 C       -13.9576014231        7.0984982346       -6.5949935651
 H       -11.9225964735        5.2048887657       -9.9918776455
 H       -11.6144329297        6.8475366881       -9.8892726005
 H       -13.1602611723        6.4234851628       -9.8726509128
 H       -10.2971559049        9.0095553392       -6.9934824759
 H        -9.6497429574        7.6271832968       -7.4525127600
 H        -9.2016630754        9.0648473190       -4.6326600526
 H        -7.9490894951        8.4895547014       -5.6520857788
 H        -9.4780176314        3.7119242696       -3.1943844259
 H       -10.4778558007        4.4024653032       -4.5735480595
 H       -12.0548752535        2.8164684123       -3.6374524071
 H       -12.4103650958        4.2070521171       -2.7390255618
 H       -13.0181205915        4.7341746713       -0.0805885135
 H       -11.2801213265        4.8035786684       -0.0760637180
 H       -12.9107934529        5.0271348639        2.4718330872
 H       -12.2555901575        6.4045597020        1.7256407233
 H       -10.8010643122        2.8503995161        6.3361541017
 H        -9.6808758130        4.3606749310        6.5131072158
 H        -8.1997510032        2.8426019126        7.3190087330
 H        -7.8335551413        2.6313405384        5.5628645943
 H        -8.9109945194        0.4640256297        3.8099724699
 H        -9.0851225814       -1.2538172805        4.3641332956
 H        -8.5392094022       -1.8443237510        2.2419171605
 H        -6.8399683234       -1.3406194095        2.6980873937
 H        -4.5584371959        2.2754390223        2.6074559180
 H        -4.3912714442        3.2315168591        1.0642095340
 H        -4.1852772649        1.4612093826        1.1398578071
 H        -6.1927214572       -1.2100999550       -0.3898396210
 H        -5.1908946233       -0.8774990070        1.0854747562
 H        -5.0224803405        0.0914490300       -0.4638944282
 H        -7.8958242196        0.1365226952       -1.2008526919
 H        -6.8196974333        1.5236840262       -1.3200882868
 H        -8.3884653886        1.7287489772       -0.5106392836
 H        -6.2334813146       -0.1851491783        8.1913107706
 H        -6.6371979470        1.4469363979        7.6182748118
 H        -5.8164504598        0.4187109376        6.5541685078
 H        -8.0284835334       -1.7343640233        7.7884119232
 H        -8.2486348020       -2.2354420090        6.1948679783
 H        -9.5632147021       -1.4291765519        6.9747326335
 H       -10.0869968563        7.1061665946        4.4629182846
 H        -8.6923221200        6.3451511612        3.7031037745
 H        -8.9428436205        5.9425747319        5.3331868680
 H       -11.4038486625        5.1818815239        6.0510297377
 H       -12.4955529780        4.5652235423        4.7768950598
 H       -11.9531271636        6.2499391728        5.0411258944
 H       -14.5498885957        2.1052922905       -0.3997315282
 H       -14.0139574138        1.4787023714       -1.9285227037
 H       -13.9758621571        3.1746025339       -1.8009077491
 H       -10.9829346798        0.4406413142       -0.7014980707
 H       -12.6800397594       -0.1672520412       -0.5860920814
 H       -11.9488484853        0.4491280210        0.7674893953
 H        -6.7828871135        6.3080991929       -2.8698054514
 H        -7.7909017598        4.8873572464       -3.3424544327
 H        -7.8335186053        5.4189558465       -1.7699968584
 H        -7.9376088100        8.4124791029       -2.4084290648
 H        -9.1863688484        7.7539770511       -1.2340595601
 H        -9.6620671696        8.7277899888       -2.6492449088
 H       -11.6622985398        8.9718975036       -8.5185646505
 H       -13.0494975613        9.4467978801       -7.6133333703
 H       -13.1926150390        8.3049511379       -8.9717823748
 H       -14.6651962442        7.4497774635       -7.3851637143
 H       -14.2448989935        7.6112993565       -5.6526438063
 H       -14.0925533227        6.0896286341       -6.4055766969
 Na       -9.4870030690        2.7618539264        1.1635261477
