117

 C       -10.9355791382       10.1655668507       -6.5907049434
 C       -10.3632934044        8.8329547752       -6.1858900966
 O       -10.5283805747        7.8323238127       -6.8216262258
 C        -9.5692599508        8.8718949546       -4.8225740940
 C       -10.1277862554        7.6772324654       -3.9301816091
 O       -10.7319330519        7.7797217072       -2.8712871609
 C       -10.0726915771        6.1245767035       -4.4059347265
 C       -11.3842130358        5.4299733301       -4.0478881309
 C       -11.2745320355        3.8735849882       -3.8993480538
 O       -10.3011586580        3.2839276996       -4.2716931276
 C       -12.4665573326        3.1803473841       -3.0521415540
 C       -12.0429217567        2.7849811114       -1.6567623980
 O       -10.8194487998        2.7252117507       -1.4001439508
 C       -13.0748515394        2.5721215610       -0.6152301310
 C       -12.8253588813        1.1624506120        0.0044723067
 C       -13.4233112746        1.0120387229        1.3708779517
 O       -14.0068127217        1.9020780433        1.9570665881
 C       -13.4287840733       -0.5426907863        2.0410779928
 C       -11.9365767216       -1.0760247067        2.0966227425
 O       -11.5494476275       -1.8707009469        1.2957313027
 C       -10.8353184581       -0.4388905246        3.0875592605
 C        -9.4021006319       -0.7784564150        2.7325660641
 C        -9.0847057206        0.1187221542        1.5342160952
 O        -9.9581381342        0.8569182423        1.0985661344
 C        -7.7345452168       -0.0276069169        0.7326659820
 C        -6.8552106727        1.3200169953        0.7192938252
 O        -7.2459750563        2.4162063975        0.4084571942
 C        -5.3890519473        1.1470238714        1.2522416930
 C        -4.8901285886        2.5005387724        1.7084664705
 C        -5.6515256744        2.9386804968        2.9654536617
 O        -6.5195111644        2.3911962224        3.5710108206
 C        -5.1728313657        4.3287533317        3.6465215907
 C        -6.2381584127        5.3476756596        3.2038762945
 O        -6.0828211863        6.1004770922        2.2991257026
 C        -7.6303409718        5.3643498585        3.9789427408
 C        -8.6298325783        6.3824186723        3.3341942256
 C        -9.3950607221        5.7325494642        2.2004346192
 O        -9.5757450395        4.5648765418        2.1186160312
 C        -9.7561520753        6.5934519096        0.9116340099
 C        -8.8038137149        6.1675919142       -0.2302822433
 O        -9.0817276479        5.2144456678       -0.9113297551
 C        -7.5987874240        7.0542283356       -0.6109226797
 C       -11.2381471967        6.1666109387        0.4756943141
 C        -9.7464376375        8.0684842087        1.2839211651
 C        -5.2216584228        4.2108167181        5.2295050190
 C        -3.6944177106        4.7821499237        3.2513809076
 C        -6.8146753694       -1.2962728335        1.1072442258
 C        -8.3062113427       -0.2351849389       -0.7328774090
 C       -14.1991776996       -0.4398721680        3.3765301033
 C       -14.3641664017       -1.3296745397        1.0408200351
 C       -13.7960971065        4.1089711738       -3.1029508537
 C       -12.9104433464        1.8890240990       -3.9141786764
 C        -8.0648669461        8.7344527377       -5.1477907967
 C        -9.7249399407       10.1367225613       -3.9916360653
 H       -11.5001153578        9.9366924983       -7.5264859661
 H       -10.2104823628       10.9729622668       -6.7914622319
 H       -11.6410703431       10.5652132269       -5.8440338889
 H        -9.2363374563        5.6288568950       -3.8681471208
 H        -9.8744457896        6.1158273133       -5.5167159731
 H       -12.1640295152        5.5883194406       -4.8485435272
 H       -11.8241485786        5.7942991626       -3.1210874862
 H       -14.0936357138        2.5860135172       -1.1102595109
 H       -13.1341662378        3.3385617684        0.1764443880
 H       -11.7343602928        1.0757994678        0.1113283698
 H       -13.0416148346        0.3897647980       -0.7663378562
 H       -11.0071830358       -0.7245575948        4.1460438331
 H       -11.0098447361        0.6539842673        3.0105552396
 H        -9.3233264636       -1.8338775124        2.4280488434
 H        -8.6927171549       -0.6901134331        3.5309335926
 H        -4.8786329879        0.7292330505        0.4111726877
 H        -5.3614025570        0.4372167228        2.1162866839
 H        -5.0106538873        3.2921707625        0.9627158050
 H        -3.8229489173        2.4756862081        1.8802044822
 H        -7.3408229845        5.6597348558        5.0100317681
 H        -8.0574876072        4.3282263257        3.9497857733
 H        -8.0922857343        7.2509198598        3.1328379877
 H        -9.3328986025        6.6901440929        4.1104574689
 H        -7.8801983112        8.0599048868       -0.8091380216
 H        -7.2067725133        6.6236949990       -1.5517802039
 H        -6.8584360321        6.9146008707        0.1341004021
 H       -11.4508560180        5.1238671831        0.7556449818
 H       -11.2804420055        6.2721825071       -0.6347834903
 H       -12.0121354505        6.6841780736        1.0324796816
 H        -9.9036880112        8.6565048959        0.3373699322
 H        -8.7362322904        8.3237919410        1.6034361334
 H       -10.4237744462        8.2982189147        2.1124634714
 H        -6.0894741608        3.5930576232        5.4971571574
 H        -5.3618429812        5.1873906529        5.5960087255
 H        -4.3826316747        3.8158446944        5.7702525261
 H        -3.2693895770        5.4535140479        3.9122794038
 H        -3.7037553353        5.2226140264        2.2657408095
 H        -3.1208927494        3.8568033112        3.3919224806
 H        -6.3345401700       -1.0710165381        2.0252458800
 H        -6.1510595136       -1.4814658975        0.3342750296
 H        -7.3897809162       -2.2683949656        1.3306672480
 H        -7.5675090675       -0.6429285735       -1.3980914272
 H        -8.7710896951        0.6786764990       -1.0821802564
 H        -9.0499402411       -1.0407464408       -0.7424817102
 H       -14.7564284650       -1.3784688403        3.4601026723
 H       -14.8683070267        0.4454325613        3.3466588556
 H       -13.5336527584       -0.3921146088        4.1499345120
 H       -14.7330790528       -2.3152709708        1.4121534849
 H       -13.8762765285       -1.5116682152        0.1241301883
 H       -15.1219636417       -0.6371191805        0.8275686928
 H       -14.0878120867        4.5801743034       -4.0010752185
 H       -13.6773719952        4.9397741241       -2.3726753938
 H       -14.7364535939        3.5454392933       -2.8197720309
 H       -12.0652147655        1.1914439412       -3.9687054408
 H       -13.1009296219        2.2901539106       -4.9033401873
 H       -13.8690175866        1.5840223213       -3.4978781785
 H        -7.8949291891        7.7399165404       -5.5018797372
 H        -7.4779166513        8.8049446732       -4.2632230091
 H        -7.6502861117        9.5232717484       -5.7886621444
 H       -10.6286733641       10.0610362643       -3.4512260836
 H        -9.8650189292       10.9940177834       -4.5934638015
 H        -8.8052792388       10.3409640272       -3.4374763767
 Na       -9.4088320838        3.0938768728        0.2442072055
