117

 C       -11.3720374112        9.5694230853       -6.4909182454
 C       -10.4252629128        8.5209292335       -6.0877470001
 O       -10.1988871216        7.6849573873       -6.8844976163
 C        -9.6680406173        8.5486375389       -4.7471979729
 C       -10.2153803073        7.4521207926       -3.7698506098
 O       -10.6883326638        7.6830262013       -2.6975974718
 C       -10.0266519882        5.9285033199       -4.1644586158
 C       -11.4103454303        5.3294510160       -4.4033998375
 C       -11.3528872130        3.8347774134       -4.1580563040
 O       -10.4022718763        3.1248578356       -4.4120556682
 C       -12.6749960724        3.1455248874       -3.4036807284
 C       -12.2121829611        2.8461517721       -1.9284183108
 O       -11.0220778187        2.9682198828       -1.7036988742
 C       -13.1743868604        2.4641695784       -0.8781484350
 C       -12.7708121092        1.2565892385        0.0033388675
 C       -13.4849233082        1.1717686691        1.3379549013
 O       -14.0439656019        2.1360848191        1.8216034418
 C       -13.5365002373       -0.2436999215        2.1390354302
 C       -12.0463145932       -0.7100044528        2.2013087167
 O       -11.6179049644       -1.6982276909        1.7083467687
 C       -11.1123778197        0.0666527948        3.0793401378
 C        -9.7127743961       -0.3479874057        2.8718316314
 C        -9.1327109383        0.5232186568        1.7376183712
 O        -9.7759585352        1.4723910739        1.3077414559
 C        -7.8302547437        0.1933788206        0.9741860453
 C        -6.8771927849        1.4119338072        0.9498445329
 O        -7.1710398553        2.5422394320        0.5405484476
 C        -5.3749550287        1.0335118139        1.1156290539
 C        -4.6622771705        2.3419414718        1.6075097057
 C        -5.4402416561        2.8257501611        2.9038999627
 O        -6.3682321323        2.2437930208        3.3587119896
 C        -5.0736733838        4.2406464318        3.6457615362
 C        -6.3055204459        5.2160466411        3.2347337989
 O        -6.2528637161        5.8623513646        2.2259341559
 C        -7.5838003544        5.1945166669        4.0692191173
 C        -8.6526849220        6.0931149018        3.3986253226
 C        -9.2152169460        5.5636843185        2.1000372144
 O        -9.4523664875        4.3687311911        2.0004844755
 C        -9.6050401915        6.5537850004        0.8787636940
 C        -8.5770630980        6.2908453056       -0.2431702352
 O        -8.6014450969        5.2537133542       -0.9181842098
 C        -7.4651533367        7.2962764830       -0.5702255516
 C       -10.9668142593        6.2438115835        0.2945609114
 C        -9.5395959447        8.0348940009        1.3509563133
 C        -5.0862225161        3.8384685471        5.1620533478
 C        -3.6797032452        4.8507096746        3.2651786391
 C        -7.1980122752       -1.0985756780        1.6595406985
 C        -8.0137183298       -0.1318835126       -0.5109748255
 C       -14.1466582767       -0.0162565247        3.5823927880
 C       -14.5176219875       -1.2043970600        1.4526212089
 C       -13.9705067490        3.9657010023       -3.5147829969
 C       -12.9108394508        1.7823336862       -4.0263708817
 C        -8.0841305980        8.3293530122       -4.9326805657
 C        -9.8308588856        9.8609534881       -4.0445244897
 H       -12.2045970658        8.9385143851       -6.8764888839
 H       -10.9457666398       10.1390617374       -7.2777055950
 H       -11.8562444054       10.2438031512       -5.8238190855
 H        -9.3875462953        5.5585233957       -3.3696394412
 H        -9.4825194407        5.7736751857       -5.0829178349
 H       -11.7407367454        5.4985936873       -5.4370402336
 H       -12.1959364453        5.6780315832       -3.7667359113
 H       -14.2202555795        2.2651475064       -1.2693929141
 H       -13.3800756314        3.3463757299       -0.1675715265
 H       -11.6874418806        1.1905630261        0.1802746562
 H       -12.8094918419        0.2531549995       -0.4781585126
 H       -11.5603963090       -0.0503857303        4.0907395066
 H       -11.1615202498        1.1518102700        2.9101369872
 H        -9.5602241484       -1.3798947024        2.5224345479
 H        -9.1015662265       -0.2709962412        3.7493454742
 H        -5.0575188607        0.6576474054        0.1766356192
 H        -5.2544141126        0.2163289953        1.8513441769
 H        -4.5917586308        3.1413160923        0.8513122781
 H        -3.6126971905        2.2338250295        1.9341381932
 H        -7.2671887973        5.5276304299        5.0926022886
 H        -7.9505752837        4.1133861536        4.1382864508
 H        -8.2262910538        7.0467181288        3.3252884253
 H        -9.4330271732        6.1969745820        4.1622850389
 H        -7.8726660199        8.1407010383       -1.0853581259
 H        -6.7379695760        6.7175446942       -1.2114240667
 H        -6.9298865494        7.5023442065        0.3693695559
 H       -10.9633133039        5.3782087022       -0.3947947241
 H       -11.3615185429        7.0872555868       -0.1870369929
 H       -11.5533010671        5.8805357184        1.0927835229
 H        -9.6890090676        8.7068142873        0.4128619724
 H        -8.7024562740        8.2599647167        1.9748104468
 H       -10.3885117908        8.0894021922        2.0665264932
 H        -6.0671333423        3.3851004720        5.5378376125
 H        -4.8948626729        4.6736734728        5.8429798291
 H        -4.3183584521        3.0405183313        5.4299165042
 H        -3.5092371081        5.7095017248        3.8382042246
 H        -3.7148958854        5.0914177645        2.1961508939
 H        -2.8941526526        4.0818627850        3.5277649462
 H        -6.9923755981       -1.0141301585        2.7182616144
 H        -6.4665334638       -1.4745485456        1.0478969937
 H        -7.9537490832       -1.9043342217        1.6858238762
 H        -7.0391109123       -0.3257233128       -0.9326150905
 H        -8.4848022782        0.6810314735       -1.1160392195
 H        -8.6625671648       -1.0330468001       -0.5943859514
 H       -13.5809850573       -0.6244488692        4.2585285598
 H       -15.2056354912       -0.2936214913        3.5759992659
 H       -14.0587299451        0.9799142825        3.8000880392
 H       -14.3880128842       -2.2458789151        1.8901681534
 H       -14.3235827214       -1.2422834700        0.3588351040
 H       -15.5504456658       -0.8727631062        1.6422412782
 H       -14.0718751314        4.4475544591       -4.4481601310
 H       -14.2239248725        4.7612210357       -2.7486486867
 H       -14.8565511039        3.2538610848       -3.5167053933
 H       -11.9263607504        1.3587896894       -4.3127886114
 H       -13.5159100273        2.0794883309       -4.8753233557
 H       -13.5230731357        1.1645535995       -3.3980719376
 H        -7.8322687709        7.4503353736       -5.5086284150
 H        -7.6916455047        8.0701742549       -3.9460604918
 H        -7.5611926685        9.2415210768       -5.3222446540
 H       -10.7881086475       10.3771822673       -4.0957655608
 H        -9.1396343044       10.4761284932       -4.5300775770
 H        -9.5793258796        9.7886744707       -2.9583004975
 Na       -9.4485385359        3.2466838023       -0.2287937446
