117

 C       -11.5577950925        9.4559690658       -6.4321719654
 C       -10.4137174377        8.4470220408       -6.1786164585
 O       -10.0347999660        7.5353074025       -6.9320033826
 C        -9.5864480730        8.5108063338       -4.6699014933
 C       -10.1532981540        7.3676548260       -3.6896761299
 O       -10.6786937974        7.7152973916       -2.6354553664
 C       -10.0881863251        5.9064541403       -4.0848728118
 C       -11.4365252115        5.3328017989       -4.4737831133
 C       -11.4826573790        3.7698428586       -4.1957952514
 O       -10.5054952858        3.1368122037       -4.5120266542
 C       -12.7618707724        3.0071914414       -3.5846631144
 C       -12.2448614500        2.8133174333       -1.9833075884
 O       -11.1094083098        2.9818927568       -1.7053330595
 C       -13.3161157456        2.4079745903       -0.9257545915
 C       -12.7969344220        1.2383138368       -0.0579259922
 C       -13.5840205790        1.2160148551        1.3107427596
 O       -14.0097713577        2.2484796816        1.7672221905
 C       -13.5895172480       -0.1465708528        2.1584141493
 C       -12.1304774747       -0.6655751185        2.3054791253
 O       -11.7052560090       -1.6379357819        1.6632580208
 C       -11.2067152406        0.2492661547        3.2598658278
 C        -9.7677026219       -0.1327157659        2.9106458105
 C        -9.1571905016        0.6164791177        1.7247714244
 O        -9.8483140247        1.4906938606        1.3018500274
 C        -7.7974721976        0.1718438127        0.9985203626
 C        -6.7947007797        1.3923862741        0.8954295456
 O        -7.1496649827        2.5604050210        0.6206327606
 C        -5.2824740055        1.1316715018        1.2353489161
 C        -4.6856605620        2.4701184209        1.6674451095
 C        -5.4098688068        2.8493210649        2.9323036030
 O        -6.2769830328        2.0747325297        3.3431313245
 C        -5.0955464988        4.1566290890        3.6166531683
 C        -6.2995131936        5.1373889056        3.1959338660
 O        -6.2323870488        5.8693845076        2.1911827555
 C        -7.4993682080        5.2093771343        4.1265162942
 C        -8.6753298189        6.0532618232        3.4802915921
 C        -9.1468554887        5.5546207244        2.1145914442
 O        -9.4328867237        4.3400032228        1.9593630227
 C        -9.4913268112        6.5409303087        0.9415759389
 C        -8.3746613527        6.3207921191       -0.2090350000
 O        -8.4851322618        5.2963967793       -0.8646399598
 C        -7.3809336581        7.4645553925       -0.5679692670
 C       -10.8779697559        6.2987119184        0.2272103356
 C        -9.5634547618        8.0841450039        1.3189486761
 C        -5.1086285905        3.7715428028        5.0553632807
 C        -3.7602004970        4.7433514726        3.2069322564
 C        -7.0907738547       -0.9950336081        1.7434683777
 C        -8.2297605218       -0.1636084320       -0.4254169935
 C       -14.0970099138        0.2094206726        3.5852694321
 C       -14.5069304668       -1.1954078739        1.4024242892
 C       -13.9818295904        3.8637774842       -3.5568380420
 C       -13.0060020969        1.5562964578       -4.1550980088
 C        -8.1398843098        8.1591162063       -4.9226640128
 C        -9.8254807549        9.9472416320       -3.9942316909
 H       -12.4591827465        8.9831191002       -6.8714118014
 H       -11.1712131274       10.2596717357       -7.0403290156
 H       -11.9623864335        9.9294374964       -5.5186209073
 H        -9.5344459756        5.4240319796       -3.1870392871
 H        -9.3964717396        5.7673776602       -4.8879298104
 H       -11.6953440966        5.4884871660       -5.5014452951
 H       -12.2848834632        5.7417939755       -3.8574882104
 H       -14.2976366245        2.1494699369       -1.2538380643
 H       -13.5464389485        3.2313067165       -0.1878521557
 H       -11.7071224968        1.2892888587        0.1225276734
 H       -12.7158039468        0.2346015554       -0.4896253325
 H       -11.4543077388        0.2271178230        4.3595905470
 H       -11.4522181416        1.2622221742        2.9696944694
 H        -9.6168599114       -1.1654600409        2.6874906568
 H        -9.1220737281        0.0227902998        3.7867675549
 H        -4.7529093733        0.6785624649        0.3353349858
 H        -5.1513989934        0.4294183320        2.0271264301
 H        -4.6780851859        3.2887889534        0.9838581178
 H        -3.6144738686        2.3117890097        1.8924792180
 H        -7.0722063698        5.5895874002        5.0720975632
 H        -7.8419019936        4.1463527882        4.2999257678
 H        -8.3637557159        7.0933634521        3.4678417733
 H        -9.4612154735        5.9970846433        4.1855205266
 H        -7.9394982650        8.1065197320       -1.2253783416
 H        -6.5393485810        7.0426203268       -1.0413858149
 H        -7.0588827067        7.9333067299        0.3820440486
 H       -10.8905160898        5.5066921557       -0.5627956443
 H       -11.2384570285        7.2126328565       -0.1552436416
 H       -11.5478834000        5.9042801927        1.0175194703
 H        -9.8476942524        8.6413199582        0.4281500104
 H        -8.6510422176        8.3989133557        1.8395282589
 H       -10.3503039906        8.1210975717        2.1242008761
 H        -6.0126059656        3.3553649082        5.4398632894
 H        -4.9835187852        4.7097931853        5.6281913972
 H        -4.3130545957        3.0853848961        5.3872010857
 H        -3.4576776087        5.4270636886        4.0069679129
 H        -3.9133437742        5.2587836694        2.2844157299
 H        -3.0351261903        3.9493887793        3.1064779726
 H        -6.5877103211       -0.7208689222        2.6841351192
 H        -6.4336739904       -1.4482157363        0.9679994436
 H        -7.7071953203       -1.7128186551        2.0345594194
 H        -7.4126477602       -0.4493014443       -1.0690270480
 H        -8.6280591864        0.7810026068       -0.8798062321
 H        -9.0799604987       -0.8557376688       -0.4186328074
 H       -13.4311412939       -0.3135356011        4.1777453752
 H       -15.0899689600       -0.0559043273        3.7593970854
 H       -13.9225624540        1.3097317248        3.7166820757
 H       -14.4179896339       -2.1445235856        1.8285857172
 H       -14.3155902146       -1.2404270202        0.3055809597
 H       -15.5388580398       -0.8640601074        1.5955901600
 H       -14.1653151720        4.4124034354       -4.5225874553
 H       -14.0587881758        4.6497527494       -2.7636892303
 H       -14.8869561736        3.2580409949       -3.4465044857
 H       -11.9804683379        1.1716387054       -4.1456113323
 H       -13.3595160876        1.7663932802       -5.1858887909
 H       -13.7413178943        1.0013172069       -3.6023554931
 H        -8.0784694812        7.1903647082       -5.3950282080
 H        -7.5157504255        8.0352028839       -4.0038521364
 H        -7.6982805428        8.8664699168       -5.5967638261
 H       -10.8474101004       10.1944875342       -3.7076836920
 H        -9.4779214034       10.6837699306       -4.6811220768
 H        -9.3215077030       10.0389549818       -3.0614794715
 Na       -9.2473066664        3.1370661999       -0.2597819178
