117

 C       -12.1840348789        6.1503863577       -9.4520714240
 C       -12.0402990295        5.9946435398       -7.9759782937
 O       -11.7083926548        4.9395421467       -7.5132161873
 C       -12.5529580583        7.2764729438       -7.2060150305
 C       -11.4344714132        7.5512754957       -6.0962591310
 O       -11.5022195324        7.1732804852       -4.9415796064
 C       -10.0703178410        8.2265405618       -6.5191421287
 C        -9.0714118337        8.1845710869       -5.3873440962
 C        -8.9952612520        6.7843001062       -4.8015711056
 O        -8.8856767015        5.7830830761       -5.4908507408
 C        -9.0666513473        6.5067497200       -3.1583778548
 C       -10.1962496016        5.6224190194       -2.7452028799
 O       -10.9038106584        5.9904493919       -1.7648206190
 C       -10.3971756746        4.3596865333       -3.5016078746
 C       -11.5691586670        3.4338066456       -2.9123344652
 C       -11.2705147769        2.7182183340       -1.6051061010
 O       -10.1207743646        2.5282290163       -1.2810980388
 C       -12.3500290582        2.1567599227       -0.6598276330
 C       -12.1897858460        2.9266638760        0.7470781085
 O       -11.8345410896        2.4210187259        1.7677705988
 C       -12.2614133622        4.4991456541        0.5751778131
 C       -12.0596566489        5.2017542374        1.8796614291
 C       -10.6802202271        5.2021263967        2.5601168852
 O        -9.6965588550        5.1103793967        1.8166711978
 C       -10.4776202500        5.1501380974        4.0966174732
 C        -9.8487442431        3.7093818260        4.5176105960
 O        -9.3502459040        2.8680957400        3.7418555011
 C        -9.7190164865        3.5366760416        6.0113906871
 C        -8.5333182834        2.6598454899        6.4353635406
 C        -8.8702508273        1.1683904218        6.6881412251
 O        -9.9521942657        0.8810740604        7.1974123133
 C        -7.7250506297        0.0589564750        6.4158608770
 C        -7.3104343108        0.0758344985        4.8664569828
 O        -6.1607392211        0.3688175559        4.6260769060
 C        -8.3347691403       -0.5288827944        3.8741857039
 C        -7.7464059918       -0.9986385466        2.4958170438
 C        -8.0159749306        0.0780297010        1.5094845210
 O        -9.1390111155        0.5584995584        1.3887193659
 C        -6.8528474607        0.6271261814        0.6239076528
 C        -6.2841618614        1.9475693315        1.2960624452
 O        -7.0477050219        2.8497563054        1.4743294889
 C        -4.8220768297        2.2333551669        1.4938814455
 C        -5.7404233837       -0.4519814823        0.4297183827
 C        -7.4842169508        1.0387573821       -0.6953830735
 C        -6.6583950735        0.4230040870        7.4747890176
 C        -8.2098972374       -1.3503979248        6.7770574277
 C        -9.3894593473        6.2072338074        4.4993089160
 C       -11.8770360748        5.3916464254        4.9289369929
 C       -13.8448711351        2.2260374030       -1.1778505190
 C       -11.9394482457        0.6842077146       -0.4460643453
 C        -7.7770572646        5.7047855657       -2.7882468489
 C        -9.1197884376        7.8438397345       -2.3198797923
 C       -12.6163824058        8.5623943717       -8.0441435834
 C       -13.8582373794        6.9067885981       -6.4867322557
 H       -11.9094922115        5.1698359909       -9.8915017764
 H       -11.5394920997        6.8687060068       -9.9910649864
 H       -13.1005824528        6.4249100984       -9.7989358051
 H       -10.1475440748        9.1674032115       -7.0742723645
 H        -9.7117999583        7.6612184606       -7.3352546078
 H        -9.0866751333        8.9824259512       -4.5716095912
 H        -8.0820342979        8.3113506627       -5.7588409259
 H        -9.4440975630        3.8793212165       -3.4358754542
 H       -10.6137516686        4.6734603531       -4.4695001978
 H       -11.8816903303        2.6911405718       -3.6167418932
 H       -12.4062067635        4.0621111413       -2.8679872843
 H       -13.1398526770        4.6831075105       -0.0030889075
 H       -11.4299326072        4.7355178924       -0.0384471270
 H       -12.8126148738        5.0318278887        2.6266690805
 H       -12.2306372180        6.3030342863        1.7471140553
 H       -10.6451921703        2.9972426404        6.2751896396
 H        -9.7233162018        4.4798001739        6.5608538014
 H        -8.2432815599        2.8784038458        7.4442938182
 H        -7.7132320338        2.7668568842        5.7253373696
 H        -9.1839779922        0.1969784585        3.7058899707
 H        -8.7301203294       -1.4750791708        4.3297602498
 H        -8.1693187428       -1.9159766083        2.2393600522
 H        -6.6764980132       -1.0972434326        2.7055320221
 H        -4.6156896331        2.1452068926        2.5560254648
 H        -4.5163461629        3.2405643210        1.1425508310
 H        -4.1823131919        1.5152176300        1.0405334810
 H        -6.1416605611       -1.3988593119        0.0028089956
 H        -5.3391861911       -0.5814466671        1.4450910736
 H        -4.9878035521       -0.1111057521       -0.2361340312
 H        -7.9601609257        0.2311722965       -1.1804814555
 H        -6.7187963462        1.4032285577       -1.4188157952
 H        -8.1741972611        1.8123214466       -0.5729352783
 H        -6.3520478936       -0.4274953338        8.0930180613
 H        -7.0188076482        1.1294215162        8.1371907807
 H        -5.7982917203        0.8827540804        7.0070132288
 H        -7.7092350141       -1.8782997689        7.6336878651
 H        -8.1463960258       -2.1057119620        5.9673299388
 H        -9.3159606105       -1.2996713523        6.9861259976
 H        -9.7364643866        7.2158219542        4.5162590110
 H        -8.4916325367        6.0808559215        3.8755309943
 H        -8.9316048903        5.8238954653        5.4550709713
 H       -11.7840865396        5.1004166301        5.9055127745
 H       -12.6410041172        4.8453757453        4.4485675664
 H       -12.1261829712        6.4618519616        5.0318837583
 H       -14.5401926727        2.2563600316       -0.2939185256
 H       -14.1286675833        1.3531130547       -1.8500623693
 H       -13.9421542463        3.0907833285       -1.7559616902
 H       -11.3581137975        0.3642196811       -1.2784131578
 H       -12.7646169008        0.0441465678       -0.2318068764
 H       -11.3759132725        0.5123037982        0.4596959769
 H        -6.8872573125        6.3107174580       -3.0319474958
 H        -7.7169527870        4.7547968405       -3.3007924779
 H        -7.7163357761        5.3649389577       -1.7496019897
 H        -8.2921863173        8.5425713022       -2.5670996069
 H        -9.1655857885        7.6215993240       -1.2356821748
 H       -10.1142343601        8.3815366673       -2.4629030886
 H       -11.6629688457        8.6882221871       -8.5740675632
 H       -12.8138288459        9.4525448393       -7.4924379312
 H       -13.3566868106        8.5375612897       -8.9246282579
 H       -14.6837487804        7.2962533151       -7.0796973029
 H       -13.9234031162        7.3291151636       -5.5121596634
 H       -13.9592332627        5.8328515196       -6.3484380737
 Na       -9.5775799715        2.8042030988        1.0259895321
