117

 C       -11.8815747243        8.0987187954       -5.8477181796
 C       -10.3837186990        7.7091838487       -5.9131087695
 O        -9.8385154429        7.0901165747       -6.8701116930
 C        -9.5202504259        8.0043557940       -4.6543902856
 C       -10.1629574797        7.0744050188       -3.5808860692
 O       -10.7794259081        7.5987749897       -2.6627529749
 C       -10.1199446996        5.5880505844       -3.8174971182
 C       -11.5817180803        5.0575114815       -3.7475273256
 C       -11.6858099801        3.7011047749       -4.4724663963
 O       -11.1839045340        3.4825131549       -5.5353159248
 C       -12.7214760580        2.6000647322       -3.7581779957
 C       -12.2910170020        2.5286274014       -2.2355300182
 O       -11.2504302592        3.0192870295       -1.9231941617
 C       -13.4475060925        1.9485151705       -1.4039372125
 C       -12.9079441586        1.3365180107       -0.1188842249
 C       -13.5973935975        1.7141198284        1.1746903811
 O       -14.0777444367        2.8043953703        1.3428330307
 C       -13.5669504797        0.6372465225        2.2850234276
 C       -12.0205912848        0.2730037772        2.4586779937
 O       -11.5695835990       -0.6220006852        1.7285927139
 C       -11.1353164297        1.0017257773        3.5090811371
 C        -9.6596979366        0.7473144249        3.2115695241
 C        -9.2532427403        0.8434360304        1.7179626528
 O        -9.9213079650        1.6227916213        1.1306097018
 C        -8.1182235073        0.0048059725        1.0889459492
 C        -6.9823577570        1.1794386431        0.6623736060
 O        -7.3300605598        2.1248810984        0.0071640700
 C        -5.4536536536        1.2034424483        1.0790139269
 C        -5.1617256178        2.5608185382        1.6669815010
 C        -5.5094004607        2.7102014748        3.1440712503
 O        -6.2530914593        1.9331678771        3.7410561952
 C        -5.0760334061        4.1654982232        3.7647798143
 C        -6.2229977140        5.0780116020        3.3411566460
 O        -6.2384266754        5.6847672626        2.2356642055
 C        -7.4319618763        5.1275231366        4.2357519184
 C        -8.5941139548        5.8877701897        3.5104748331
 C        -8.9652851035        5.5474206526        1.9887831769
 O        -9.1861765517        4.3846424991        1.7474428051
 C        -9.2142951528        6.6882589660        0.9473346084
 C        -8.0748843704        6.4252833626       -0.1627986087
 O        -8.1787391762        5.4607971694       -0.8842055132
 C        -6.9785743237        7.4849622459       -0.3820087671
 C       -10.6531564987        6.6167495722        0.3395554234
 C        -9.1292369013        8.1147841180        1.5333662893
 C        -4.7856111517        4.0421464689        5.3061023922
 C        -3.6949334749        4.6106898559        3.1314592337
 C        -7.4700723909       -0.9591827601        2.1164930566
 C        -8.7379529680       -0.7004857350       -0.1712954385
 C       -14.1013571781        1.2753490433        3.5936401837
 C       -14.3608401764       -0.6293594026        2.0399830515
 C       -14.1275455061        3.1861904048       -3.9140832445
 C       -12.6670985399        1.2643239742       -4.5335299815
 C        -8.0229850549        7.6185269598       -5.0229555250
 C        -9.5605140570        9.5191844353       -4.2768310274
 H       -12.5318665835        7.8785839981       -6.7165374812
 H       -12.0301146961        9.1510362407       -5.7163366800
 H       -12.3203676739        7.6277437703       -4.9442869909
 H        -9.3414393316        5.0925337690       -3.1689995807
 H        -9.7547611985        5.4723508713       -4.7831225061
 H       -12.1826348794        5.7625882050       -4.3526466892
 H       -12.1411548052        4.9555042988       -2.8069212139
 H       -14.1147488368        1.2720631231       -1.8420825286
 H       -14.0455700101        2.7789220848       -1.0884721502
 H       -11.8940655110        1.6988008360       -0.0038310875
 H       -12.6619069271        0.2859587569       -0.1028464202
 H       -11.4905295845        0.6216770894        4.4818494001
 H       -11.3480605655        2.0499854765        3.4474277789
 H        -9.4306559212       -0.3027137693        3.4803894957
 H        -8.9922412065        1.4423644751        3.7541377572
 H        -4.8859447719        1.0491758388        0.1464547694
 H        -5.1885806597        0.4052374562        1.7280891011
 H        -5.7239607680        3.3337413812        1.1100739205
 H        -4.0777511563        2.7686555020        1.5795716882
 H        -7.1557356590        5.4914697336        5.1846273007
 H        -7.7144433645        4.1016676118        4.4164263244
 H        -8.2208553163        6.9175568022        3.5635256711
 H        -9.4943197430        5.8205926808        4.1819837292
 H        -7.4176231965        8.4264252155       -0.6408906451
 H        -6.4457642867        7.0426455724       -1.1754992499
 H        -6.3613576174        7.5684144043        0.5320779413
 H       -10.8706434335        5.5766017773        0.0011085694
 H       -10.8450364799        7.2710504689       -0.5191978678
 H       -11.2853969513        7.0596481900        1.1469307762
 H        -9.3533983637        8.8220546617        0.7674583242
 H        -8.1477099256        8.3201289035        1.8977751559
 H        -9.9117335269        8.1350820927        2.2740425555
 H        -5.5511747282        3.6388386351        5.8701369445
 H        -4.6095038465        4.9709546401        5.8022197840
 H        -3.9331787636        3.4472498423        5.5266758898
 H        -3.2711165074        5.3554444376        3.8309391805
 H        -3.9429975708        5.0977578347        2.1842014212
 H        -2.9728610008        3.8067047389        2.9456779195
 H        -6.9696894316       -0.4339872128        2.9440337356
 H        -6.5378800351       -1.4885631370        1.6791489472
 H        -8.1262089071       -1.7478395810        2.3059313943
 H        -7.9800934619       -1.2094819862       -0.7218085238
 H        -9.0247664635        0.1728038057       -0.7974210516
 H        -9.5802924418       -1.3755062368        0.0212068352
 H       -14.0677032596        0.5741869315        4.4287421906
 H       -15.1294485090        1.6658970410        3.4675277582
 H       -13.3944036836        2.1829935915        3.7570525742
 H       -14.1711058960       -1.2344246095        2.8507841888
 H       -13.8948931812       -1.1437587258        1.2049713252
 H       -15.4146845085       -0.5286745874        1.8954889310
 H       -14.3135165650        3.3257662065       -4.9745095657
 H       -14.3916299580        4.1119168356       -3.4183363059
 H       -14.8561675586        2.4675548582       -3.6212809203
 H       -11.6220418855        0.9460876295       -4.6000856378
 H       -13.0080621491        1.5454363753       -5.5591085545
 H       -13.3022628702        0.5888978563       -4.0197676585
 H        -7.9759922978        6.6225215763       -5.4058882047
 H        -7.4465820856        7.7132756113       -4.0980914851
 H        -7.5304480005        8.2308931701       -5.7509798897
 H       -10.5638944045        9.9104363154       -3.9898480945
 H        -9.2099726586       10.1340610880       -5.0662620014
 H        -8.8559115073        9.7419703581       -3.4737197195
 Na       -9.2804216453        3.2655875830       -0.3709880404
