117

 C       -11.8298437624        8.0408283346       -5.9343896932
 C       -10.3725959544        7.6862725112       -5.9665174406
 O        -9.9696198332        7.1191693305       -6.9124381196
 C        -9.4643341310        7.9527248332       -4.6990502053
 C       -10.0847511702        7.0835656886       -3.5787325915
 O       -10.6673978666        7.5974611001       -2.6468547410
 C       -10.0874364874        5.5586388675       -3.7540144663
 C       -11.6007608248        5.0990294239       -3.8681749712
 C       -11.7482810517        3.7005655967       -4.5644212308
 O       -11.2171261078        3.5600426455       -5.6283803938
 C       -12.6640173065        2.6465592407       -3.9164533878
 C       -12.3445656238        2.4899632832       -2.3435373702
 O       -11.2325028375        2.7145486830       -1.8536958794
 C       -13.4305706334        2.0021946076       -1.3873358641
 C       -12.8193329254        1.3232742198       -0.0884611030
 C       -13.5999493863        1.7336308436        1.1370471185
 O       -14.1583413960        2.7914235024        1.3040880014
 C       -13.4883990538        0.7407897374        2.4220662856
 C       -12.0386996159        0.3383171062        2.5728513296
 O       -11.5390695420       -0.5044439253        1.8329038222
 C       -11.1283402743        1.0970672181        3.5248185092
 C        -9.6654013564        0.8332146234        3.3398738179
 C        -9.3222325481        0.8854795695        1.7456918294
 O        -9.9483040626        1.6294527059        1.0354129525
 C        -8.0703130597        0.1157570249        1.1269393846
 C        -7.0389952447        1.0832885473        0.6470566867
 O        -7.4367665522        1.9951604168       -0.0904213480
 C        -5.5957689839        1.1090562548        1.1013468115
 C        -5.2148590175        2.5471250962        1.6249130642
 C        -5.5039848671        2.7592870990        3.1195723252
 O        -6.2023059543        2.0178081063        3.7630223711
 C        -5.0027023028        4.1224172701        3.7595800266
 C        -6.2060474289        5.1043788914        3.3696680068
 O        -6.1863265114        5.6801994686        2.3199773937
 C        -7.5054467758        5.1425330512        4.1918641820
 C        -8.6350514895        5.9674315865        3.5243977092
 C        -8.9530377010        5.5702203045        2.1006230875
 O        -9.2073641059        4.4058642979        1.8212208559
 C        -9.1757544917        6.6988272685        1.0236981068
 C        -8.2159747122        6.3756079532       -0.2395316333
 O        -8.3967328200        5.4133337759       -0.9309479785
 C        -7.0321180951        7.2696039000       -0.2939837876
 C       -10.6237824429        6.6133990426        0.4479432639
 C        -8.9231446292        8.1660359212        1.5054303222
 C        -4.8953129405        4.0684997709        5.2866456160
 C        -3.6698782199        4.5505344968        3.0775053608
 C        -7.3972078942       -0.9622139635        2.0154826318
 C        -8.7435888145       -0.6331790907       -0.1063827793
 C       -14.0165819077        1.5051720075        3.6841400234
 C       -14.3964069450       -0.5566186699        2.0519995705
 C       -14.1567942413        3.1224995164       -3.9156371014
 C       -12.5139851597        1.2220600089       -4.5099721758
 C        -8.0075462433        7.5083891513       -4.9756638810
 C        -9.5805173242        9.4576551263       -4.3131269769
 H       -12.2867611232        7.6605827083       -6.7853933489
 H       -11.9967829194        9.1246854945       -6.0375649402
 H       -12.3661546172        7.7514095528       -5.0256657941
 H        -9.6458691079        5.1742248929       -2.8603306050
 H        -9.4165304711        5.2878171560       -4.5468249564
 H       -12.1722408659        5.8287793005       -4.3921624883
 H       -12.1020874999        5.0074018072       -2.8827058161
 H       -14.0131633876        1.1980738671       -1.7703109360
 H       -14.1920626683        2.7689027433       -1.0321406767
 H       -11.7465012002        1.4727545723        0.0822272678
 H       -12.8412896946        0.2223780210       -0.1073152512
 H       -11.5038566425        0.8087297537        4.5388975234
 H       -11.3077107032        2.1633421394        3.3640243359
 H        -9.3811120840       -0.1128425611        3.7434150094
 H        -9.0623171371        1.6603851225        3.7858860883
 H        -5.0606921369        0.9979109170        0.1544856458
 H        -5.2664206803        0.3209215882        1.6974830237
 H        -5.8022866213        3.3018710043        1.0765124386
 H        -4.1224126777        2.6922044957        1.3987310807
 H        -7.2665739176        5.5234943959        5.1979894606
 H        -7.8465208831        4.0962740677        4.3667306022
 H        -8.3064048478        7.0279190378        3.6327826937
 H        -9.4858284064        5.8384026308        4.1510598100
 H        -7.3254783996        8.3271149920       -0.5468658015
 H        -6.3202753096        6.8257400629       -0.9793983173
 H        -6.6540593303        7.2180404818        0.7292854642
 H       -10.7163748813        5.7506903178       -0.1124751316
 H       -10.8538109292        7.4679096267       -0.2144976744
 H       -11.3360316299        6.7354221706        1.2761641028
 H        -9.0164140018        8.8503401754        0.7279270379
 H        -7.8511057540        8.1925328061        1.8828577172
 H        -9.6053938543        8.3278036818        2.3520768229
 H        -5.7985008395        3.7219567009        5.7460208052
 H        -4.7409647759        5.0748848976        5.7338489214
 H        -4.1261835912        3.4939257688        5.7374658810
 H        -3.0246116618        5.1840345177        3.7861289905
 H        -3.9941019593        5.1525342691        2.2112763208
 H        -3.0568008594        3.7065622027        2.7723204972
 H        -6.6961696210       -0.6000906868        2.6833868844
 H        -6.7874358501       -1.6136430306        1.3828798171
 H        -8.1452674328       -1.6978851337        2.4655753162
 H        -8.1109959477       -1.4604132512       -0.4753990903
 H        -8.9430756916        0.0743727272       -0.8811668052
 H        -9.6602462935       -1.0975110710        0.2243632977
 H       -13.5906344714        1.0791174427        4.6242575871
 H       -15.1039446561        1.4337186249        3.7302173906
 H       -13.7186309367        2.5903113071        3.5637764662
 H       -14.1713400419       -1.4198764070        2.6406893665
 H       -14.1557444110       -0.8452633826        1.0395543799
 H       -15.4613272399       -0.3093378651        2.0890996832
 H       -14.6225236009        3.2061197658       -4.9252182003
 H       -14.3928091512        4.0095283191       -3.4107492328
 H       -14.6612253094        2.3014499481       -3.5066778433
 H       -11.5155444947        0.8707214142       -4.3761223638
 H       -12.6497989600        1.4245076652       -5.5732129124
 H       -13.3038086199        0.6056118594       -4.0804303984
 H        -7.9610158944        6.4200908746       -5.1304408666
 H        -7.4362235189        7.8416040110       -4.0979637257
 H        -7.5532174503        7.9788476481       -5.8015546877
 H       -10.5889934016        9.8560069064       -4.4660387790
 H        -8.8947461013       10.1237267179       -4.9332018486
 H        -9.2231533304        9.6687369680       -3.3343254426
 Na       -9.1764224146        3.2781315090       -0.4539452097
