117

 C       -11.8216314772        8.2149791807       -6.2264681434
 C       -10.3525780188        7.6462852094       -6.1175701934
 O        -9.8087829091        7.0392643819       -6.9853822408
 C        -9.4723468347        7.8738611272       -4.8077002881
 C       -10.0314771382        7.0472719989       -3.5562683126
 O       -10.2033353325        7.5334651103       -2.4600502858
 C       -10.2731243245        5.5353605831       -3.8028989406
 C       -11.8211635204        5.1134608984       -3.9503590943
 C       -11.8393009695        3.7019120220       -4.6172741031
 O       -11.2899106216        3.5605184796       -5.6669662811
 C       -12.5956585120        2.5036979480       -3.8691113950
 C       -12.0854065436        2.2491310124       -2.3233652606
 O       -10.9339207564        2.3808837448       -2.0935377924
 C       -13.2488609180        2.0502905615       -1.3332475254
 C       -12.8491100320        1.4018295553       -0.0448552716
 C       -13.6461942114        1.8570208690        1.1399598599
 O       -14.3329142825        2.8329525403        1.1254757620
 C       -13.4759942637        1.0432951669        2.6289053456
 C       -11.9804564512        0.6107655215        2.8302792646
 O       -11.6266319699       -0.4776850263        2.2898174255
 C       -11.0299169473        1.4574890979        3.5847773644
 C        -9.6011654513        0.8664335174        3.3100437384
 C        -9.2863731246        1.0945035484        1.7926331827
 O        -9.8873405378        1.9781256948        1.2361397219
 C        -8.2804830625        0.1029752994        1.1689872698
 C        -7.1029696514        1.0095948019        0.5641639436
 O        -7.3120694170        1.8194801846       -0.3247275446
 C        -5.6305833033        1.0284112697        1.1365126175
 C        -5.1258708572        2.3936957164        1.5482097500
 C        -5.5508321380        2.7597243471        2.9931983273
 O        -6.2575440716        2.0065933299        3.6267236897
 C        -5.0689037242        4.1515230733        3.7298560978
 C        -6.2633305390        5.1262711007        3.3465535610
 O        -6.1359891306        5.9189381906        2.4208033094
 C        -7.5331623508        5.0273907814        4.1677760147
 C        -8.6098189537        5.9759362047        3.5924528416
 C        -8.8243392843        5.5722974406        2.1077267994
 O        -9.0127035256        4.4176210579        1.8406435676
 C        -9.0613999704        6.7665970966        0.9726744046
 C        -8.3369364899        6.1974273206       -0.2510488889
 O        -8.7958791238        5.3013251511       -0.9238404834
 C        -6.9368656634        6.7433055820       -0.5900242355
 C       -10.5945410836        6.7096427637        0.7855218043
 C        -8.7663085526        8.2486611806        1.5219762803
 C        -5.0931539940        3.8985561149        5.2000220976
 C        -3.7443875768        4.7368397407        3.1950949014
 C        -7.6715019236       -0.9206260883        2.1310273716
 C        -8.9229054405       -0.6218637013       -0.1163999634
 C       -13.9860187428        1.9381799894        3.7893907950
 C       -14.3047711545       -0.2792998483        2.4539921557
 C       -14.0881962948        2.8306698520       -4.1072644988
 C       -12.2218175957        1.0929013167       -4.5546451512
 C        -8.0445377931        7.2843909870       -5.0706292980
 C        -9.5263927189        9.4090696312       -4.4575093590
 H       -12.5631080252        7.4359035632       -6.3834942538
 H       -12.0117876445        8.8784732823       -7.0712844695
 H       -12.1082388904        8.8389993547       -5.3348070659
 H        -9.9502313383        5.0595349811       -2.8137501222
 H        -9.5434205928        5.3235005817       -4.5286015675
 H       -12.4762826106        5.7993009158       -4.5236374745
 H       -12.2438396643        5.0524208238       -2.9060801209
 H       -14.0865117220        1.5264676562       -1.6738114896
 H       -13.5927022123        3.0378461785       -1.0714756341
 H       -11.7784778401        1.5735794671        0.1206457987
 H       -12.9421763646        0.3033876514       -0.1172464316
 H       -11.2009779621        1.3081022541        4.6648080338
 H       -11.2380413659        2.4618553068        3.2995173541
 H        -9.6484673317       -0.2129536321        3.4721379400
 H        -8.8542445675        1.3374402392        3.9820263889
 H        -4.9268062370        0.6969340978        0.2963470009
 H        -5.4444593179        0.3307171121        1.9194526262
 H        -5.5183653408        3.1371035344        0.8681770670
 H        -4.0373668362        2.3380481555        1.4709682764
 H        -7.2899102906        5.2298713179        5.1709192277
 H        -7.8019142036        3.9880958417        4.1195963294
 H        -8.1338449997        6.9834353478        3.7387869030
 H        -9.5152777597        5.9585556623        4.2453233430
 H        -6.9481524288        7.8270000509       -0.6744018844
 H        -6.4880599526        6.2835621872       -1.4153952299
 H        -6.3997194865        6.4643876429        0.3202919285
 H       -10.9429943424        5.6912214317        0.6236423735
 H       -10.8465857836        7.3368013918       -0.1222444146
 H       -11.1524826311        7.0563275442        1.7228718167
 H        -9.0464912589        8.7948339178        0.6943926555
 H        -7.6976571087        8.4302563133        1.7478357560
 H        -9.2954498713        8.4698703756        2.4516444269
 H        -5.8682370406        3.2727114782        5.5198368410
 H        -4.9880305476        4.7366538821        5.9098188590
 H        -4.2162204569        3.3411542488        5.4866888238
 H        -3.5889176440        5.8286968196        3.3698344235
 H        -3.7000414483        4.6523892090        2.1437544076
 H        -2.9652362274        4.2990864545        3.7342120664
 H        -7.3695661744       -0.5470820171        3.0709845429
 H        -6.9449750147       -1.6231979362        1.5965777580
 H        -8.5123835685       -1.6309306463        2.4099573511
 H        -8.1300822341       -1.0876600959       -0.6888435370
 H        -9.5047210947        0.1515983078       -0.6572875807
 H        -9.5743463955       -1.4769763184        0.0960399546
 H       -13.4786340893        1.7875568681        4.7073603864
 H       -15.0295026294        1.8377398970        3.9574193909
 H       -13.7737655220        3.0267122377        3.5163808270
 H       -14.4281324230       -0.7380503452        3.3892652939
 H       -13.7522267731       -1.0064898864        1.8122863574
 H       -15.2972651508       -0.0902315368        1.9839818011
 H       -14.2318144676        3.0372469967       -5.2340160372
 H       -14.3134467615        3.8078248581       -3.6497735017
 H       -14.8259229452        2.0682101033       -3.9317478178
 H       -11.1828692280        0.9274050048       -4.2699328702
 H       -12.3115187778        1.2486370984       -5.6618453132
 H       -12.9136477851        0.3575816785       -4.1780979285
 H        -8.1083021841        6.2062756511       -5.1718542254
 H        -7.3049862196        7.5973768599       -4.2941267517
 H        -7.6699887806        7.7007525755       -5.9787334282
 H       -10.5023233280        9.8385211152       -4.6719631006
 H        -8.9093726174        9.9258437896       -5.1922445134
 H        -9.1216145547        9.7201274979       -3.5375649791
 Na       -9.6344095958        3.2082344941       -0.4584869436
