117

 C       -12.1366990193        6.1061584947       -9.6644807111
 C       -12.0828880093        5.8776449595       -8.1400451663
 O       -11.7392311222        4.8827393899       -7.5835055612
 C       -12.4566596859        7.1877459330       -7.1952229627
 C       -11.3524521304        7.4435466348       -6.1370911040
 O       -11.5452206879        7.1666680049       -4.9389966933
 C       -10.0702102020        8.1876599773       -6.5297772164
 C        -9.1366302320        8.0398036219       -5.4095155005
 C        -9.1211921229        6.5764787950       -4.7761844881
 O        -9.1764057550        5.6415530026       -5.5312776689
 C        -9.0336383099        6.4311892873       -3.2245923295
 C       -10.2776903867        5.5761788416       -2.7256763099
 O       -11.0108907743        5.9379569148       -1.7705097933
 C       -10.5821038205        4.3117205670       -3.5229396541
 C       -11.6451408409        3.3883479815       -2.9230231309
 C       -11.2545942984        2.8044596916       -1.5319108681
 O       -10.0683781495        2.6676257460       -1.2595783825
 C       -12.3470576388        2.1939121091       -0.5915563014
 C       -12.1783440211        2.9641845851        0.7943993223
 O       -11.8797215681        2.4641873568        1.8351346437
 C       -12.3696818492        4.5207788842        0.6732021677
 C       -12.1082724252        5.2408916316        1.9916624255
 C       -10.6410153198        5.0776037995        2.5798883610
 O        -9.6911462671        5.1133708140        1.8572050378
 C       -10.4931623429        5.1241894666        4.1471896327
 C        -9.8016534673        3.7987312165        4.6348946600
 O        -9.3439684013        3.0546302330        3.7465829888
 C        -9.6399822537        3.4959403921        6.1375558230
 C        -8.3800296718        2.7044039175        6.5401830787
 C        -8.8499744070        1.1786074579        6.7541442596
 O        -9.9320259036        0.9492489220        7.1869824795
 C        -7.7295374929        0.1882882674        6.5126195617
 C        -7.2459384379        0.1014705168        4.9529356543
 O        -6.1549925842        0.5188505039        4.5655527162
 C        -8.2642269764       -0.5525106666        3.9731840712
 C        -7.5692781215       -0.8549688221        2.6448271879
 C        -8.0188710049        0.0527268298        1.4475473106
 O        -9.1909016006        0.4475413653        1.2881774052
 C        -6.8574791105        0.6556967840        0.5575763489
 C        -6.3249996568        2.0658221731        1.2117414528
 O        -7.0970630280        2.9732452441        1.4623576892
 C        -4.8452002563        2.1140985235        1.4592873972
 C        -5.7336238098       -0.4302426872        0.5221877154
 C        -7.2628436414        0.9836128586       -0.9442947724
 C        -6.6091761395        0.5898438775        7.4809870589
 C        -8.1665032983       -1.3322105013        6.7662194056
 C        -9.4162003810        6.1973614321        4.4670617929
 C       -11.7906884434        5.5289176270        4.7357292548
 C       -13.7848559418        2.2788135342       -1.1008438245
 C       -12.0373082023        0.6296044286       -0.5174609984
 C        -7.6968918568        5.7304282383       -2.8398204990
 C        -9.1879583339        7.7463881335       -2.4405316755
 C       -12.7033221848        8.4488256041       -7.9719396909
 C       -13.7216376021        6.7776085757       -6.3525529455
 H       -11.8707498124        5.2007162425      -10.2085166978
 H       -11.4193525216        6.8731373791      -10.1186344980
 H       -13.1285356356        6.4719695642      -10.0833187149
 H       -10.2259175004        9.3093795749       -6.6970719050
 H        -9.8624895292        7.9865036893       -7.5363826712
 H        -9.5281072304        8.7169870084       -4.6445277226
 H        -8.1588206192        8.4472365059       -5.5501418466
 H        -9.6437315773        3.7499980404       -3.5474767724
 H       -10.8906297370        4.6756422284       -4.4706438393
 H       -11.7889734209        2.5652886908       -3.6166268357
 H       -12.6046957496        3.9319545659       -2.9913106442
 H       -13.4099018634        4.4867486760        0.3366133162
 H       -11.7711046006        4.9241955697       -0.1321666005
 H       -12.8066902187        4.9057512273        2.8115670349
 H       -12.4321659714        6.2550650095        1.9637457138
 H       -10.5124138861        2.9953093708        6.4491241822
 H        -9.7099032277        4.4071228908        6.7067818917
 H        -7.8766400407        3.0464453289        7.4564312337
 H        -7.7524006454        2.7194644808        5.6277218926
 H        -8.9808013000        0.2600452963        3.7598042332
 H        -8.8250607314       -1.4477562118        4.3041045926
 H        -8.0932668033       -1.8044615422        2.3410803061
 H        -6.5427276608       -1.0083106578        2.8302873500
 H        -4.6709991360        1.7859117098        2.5275213363
 H        -4.5108887816        3.0554253428        1.3696026778
 H        -4.2106104767        1.4571368010        0.8522203850
 H        -6.2033035619       -1.3842079417        0.4783389504
 H        -5.1982916020       -0.3219375552        1.5231907702
 H        -5.0867121617       -0.3261281680       -0.2784075221
 H        -7.9448090633        0.3180246849       -1.3992934515
 H        -6.4372518529        1.0344979707       -1.6447738977
 H        -7.6964449784        1.9542763272       -0.9436272845
 H        -5.9959988746       -0.2658094873        7.4376007458
 H        -6.9336613695        0.6869200536        8.4817540870
 H        -6.0250738491        1.5163693864        7.2583242522
 H        -7.7241403868       -1.8519346328        7.6764799956
 H        -7.8889647615       -2.0138956219        5.9225967276
 H        -9.2773428016       -1.4455687219        6.8314982275
 H        -9.6741886470        7.2560802065        4.2099825131
 H        -8.4841984748        5.8327318067        4.0074460374
 H        -9.0971549736        6.0577053402        5.4789502965
 H       -11.7387539891        5.5699288138        5.8331524312
 H       -12.5328273826        4.8010126833        4.4089130026
 H       -12.0974308029        6.5702588130        4.4181065952
 H       -14.4594824005        2.1071194797       -0.2671062273
 H       -13.9988994641        1.5480863429       -1.9406950666
 H       -13.9321850282        3.3100292938       -1.4545183218
 H       -12.2220192623        0.2429910770       -1.5196654401
 H       -12.5762690541        0.1386288968        0.2632019708
 H       -11.0515312169        0.3619412463       -0.2525730915
 H        -6.8468672827        6.4081399647       -3.0073577706
 H        -7.5212984959        4.8182424732       -3.3967242862
 H        -7.6888191282        5.3597514205       -1.8107381131
 H        -8.6186885330        8.6456272903       -2.7043944363
 H        -9.0986848333        7.4792454265       -1.3898296672
 H       -10.2754951871        7.9719629658       -2.3786489483
 H       -12.0392740288        8.6037183837       -8.8087092423
 H       -12.7926268356        9.4223630953       -7.3695141552
 H       -13.6515738582        8.3790471966       -8.4430295294
 H       -14.5436593549        7.0333354475       -6.9570215545
 H       -13.7990291863        7.2590464899       -5.3860724218
 H       -13.7353323421        5.6530054085       -6.1482681798
 Na       -9.4636803742        2.8771447000        1.0487099414
