117

 C       -11.6017210821        8.3108597211       -6.2883767860
 C       -10.2238497674        7.5680422888       -6.2071130750
 O        -9.8834351127        6.7933387335       -7.0181226007
 C        -9.3527148469        7.7753559664       -4.8255127098
 C        -9.9707098073        6.8669216197       -3.8026642568
 O       -10.2393637448        7.3185068824       -2.6880143878
 C       -10.1764666779        5.3748511422       -4.1180974797
 C       -11.7052506071        4.9524526214       -3.8539223281
 C       -11.8084078462        3.5271560325       -4.5196013378
 O       -11.3356136426        3.4338979656       -5.6525772005
 C       -12.5314219245        2.2284696020       -3.7818004165
 C       -12.1053245534        2.3162589937       -2.3457174851
 O       -10.8990414132        2.3580180641       -2.1811918958
 C       -13.1215478391        2.2130417133       -1.2094511064
 C       -12.6788553514        1.5007917861        0.1706930588
 C       -13.4720477745        2.1059783908        1.3055557148
 O       -14.3354870259        2.8766703591        1.0369536494
 C       -13.4310343293        1.4572790648        2.7383579130
 C       -12.0637774506        0.8034195545        3.0381218245
 O       -11.8006620696       -0.2957351629        2.5400099023
 C       -11.0641869042        1.3819158689        3.9896690019
 C        -9.6468005388        0.9040148563        3.6709045317
 C        -9.3782848224        1.1805970392        2.1291520954
 O       -10.0279834846        2.0308731287        1.5279350239
 C        -8.2511235146        0.3450331566        1.3387925185
 C        -7.2043351988        1.2300339860        0.7656538627
 O        -7.4874053199        2.2711596868        0.0983317493
 C        -5.6897969012        1.0378650541        0.9405069240
 C        -5.0386446876        2.2561283214        1.5593697206
 C        -5.7611062604        2.6996258896        2.9079059903
 O        -6.7336872102        2.1551545221        3.3717860527
 C        -5.1924912450        3.9403262352        3.5996484907
 C        -6.3039467237        5.0999161595        3.4046820011
 O        -6.0237861128        5.9913169149        2.6855964763
 C        -7.6518614366        4.9865950233        4.1037550627
 C        -8.6792414214        5.8860986220        3.4402365906
 C        -8.7998044130        5.5284685678        1.9680008298
 O        -8.8439677412        4.3373531768        1.6022939939
 C        -9.0131023867        6.6320826277        0.9094841146
 C        -8.3894249685        6.0755628908       -0.5234429456
 O        -9.0461650740        5.2479793251       -1.1490746623
 C        -7.2023774901        6.7364279216       -1.1450293098
 C       -10.4976306093        6.7931233740        0.6494794561
 C        -8.4415405089        7.9791614971        1.3325178721
 C        -5.0356439875        3.5170007207        5.0702480976
 C        -3.8321604635        4.4140719600        3.0000416509
 C        -7.6550735359       -0.8258715186        2.1236765005
 C        -9.0498714010       -0.2958177078        0.1721803105
 C       -13.7947695462        2.5029732846        3.7396618100
 C       -14.5065547631        0.3389410102        2.6784088500
 C       -14.0285148377        2.3915454254       -4.0694961335
 C       -12.0111304901        1.0088366708       -4.4914455185
 C        -7.9347089338        7.3903535973       -5.1984968710
 C        -9.4828318635        9.2414741181       -4.5059788058
 H       -12.4396162270        7.7259086822       -6.0501967621
 H       -11.7766117601        8.6141895574       -7.3267768488
 H       -11.6820257059        9.2664291276       -5.7522317362
 H        -9.4710324942        4.9162132254       -3.3672209476
 H        -9.7780425751        5.2225249724       -5.1532913591
 H       -12.4395862153        5.6022413178       -4.3166306171
 H       -11.9608955546        4.8288955757       -2.7951014249
 H       -14.0358621357        1.7447756606       -1.4807911963
 H       -13.4457321611        3.2807472525       -0.9552304335
 H       -11.5895248708        1.5237899670        0.2175054584
 H       -13.0827142808        0.4692036686        0.0246758228
 H       -11.4095659396        0.9201182493        4.9476083014
 H       -11.0953674084        2.4531342007        3.9969860102
 H        -9.5219807013       -0.1366275949        3.9287116041
 H        -8.8187668325        1.4785891900        4.1343121670
 H        -5.2410113007        0.8383995104       -0.1120994810
 H        -5.4254088752        0.1714478729        1.5237668355
 H        -5.1455260469        3.0517649969        0.8509075710
 H        -3.9853500372        2.0569859765        1.7209726852
 H        -7.5378931033        5.2074940590        5.1759147478
 H        -8.0207047563        3.9452847935        3.9978646368
 H        -8.3619998305        6.9456536598        3.6341776137
 H        -9.6414029491        5.7849029307        3.9436009347
 H        -7.6220024689        7.5925788080       -1.7543167874
 H        -6.7163080936        6.0786105024       -1.8662044740
 H        -6.4843097458        7.0096117596       -0.3618145185
 H       -10.9100950287        5.9284250475        0.3114175018
 H       -10.7377033853        7.6382946893        0.0151863937
 H       -10.9740173972        6.8369318006        1.6163660265
 H        -8.4973024989        8.7245145824        0.5697803970
 H        -7.3707088285        7.8398848793        1.7444473972
 H        -9.0456773934        8.4075564280        2.1833107292
 H        -6.0239146020        3.2389079241        5.5201781040
 H        -4.6092995643        4.3219077872        5.7831216726
 H        -4.4164809648        2.6291776972        5.2840459873
 H        -3.2562665343        5.0903641349        3.7140973656
 H        -4.0764081303        5.1030843646        2.1972057745
 H        -3.1510452410        3.6635649580        2.6747707206
 H        -7.2702866003       -0.6461644768        3.0863720158
 H        -6.8489508264       -1.2187286903        1.4861358695
 H        -8.4833602143       -1.6341605032        2.3315149635
 H        -8.3938493016       -1.0947616040       -0.2371362890
 H        -9.1442840433        0.4622474523       -0.6026239688
 H       -10.0437685963       -0.6729576075        0.3690845412
 H       -13.9868786834        2.0731562669        4.6865871423
 H       -14.6435732722        3.0328810894        3.4396986745
 H       -12.9824210954        3.2097464937        3.9433183361
 H       -14.5856472701       -0.2202497987        3.6128381408
 H       -14.3023180713       -0.3464077311        1.8124261431
 H       -15.5080293262        0.7973486599        2.4225925073
 H       -14.0859321912        2.4598864756       -5.2207042420
 H       -14.4457231026        3.3044479802       -3.6379685105
 H       -14.6392909293        1.5424429474       -3.7775875617
 H       -10.9666833797        0.9347504963       -4.2548564798
 H       -12.2947761122        1.1334364020       -5.5515770692
 H       -12.5603468470        0.1647948983       -4.0905889621
 H        -7.9715189934        6.4556485710       -5.7911055387
 H        -7.3867256204        7.0935175437       -4.2567886023
 H        -7.4320214297        8.1731308761       -5.7235090800
 H       -10.4395518208        9.4334133429       -3.9943579048
 H        -9.5233835786        9.8693389623       -5.4529349067
 H        -8.7692394547        9.6875929439       -3.8538998393
 Na       -9.4535946535        3.0975575690       -0.3832383752
