117

 C       -11.5336561859        8.3063371288       -6.4465047905
 C       -10.2617231053        7.5737774937       -6.2381338067
 O        -9.9747689005        6.6982142585       -7.0503495488
 C        -9.3343725517        7.7653961261       -4.8655821041
 C        -9.9936676117        6.8153687459       -3.8701305354
 O       -10.5255624800        7.2157755238       -2.8856972140
 C       -10.0311184397        5.2859537362       -4.1991071419
 C       -11.3266973870        4.7277545081       -3.8689962609
 C       -11.6913309518        3.4047141383       -4.6328660716
 O       -11.5421930933        3.2445404501       -5.7936581440
 C       -12.4146466859        2.2664050863       -3.7185825212
 C       -12.0405947447        2.2976981404       -2.2108943031
 O       -10.8480285161        2.3044552110       -1.9020606112
 C       -13.1587893866        2.1620940577       -1.2488082267
 C       -12.7922527670        1.6328548133        0.1902630206
 C       -13.5208317167        2.2554825906        1.2986830575
 O       -14.2442253120        3.2123381598        1.0890890263
 C       -13.4032980423        1.6038095974        2.7911309132
 C       -12.1068950684        0.8011545771        3.0019867084
 O       -11.8578133034       -0.2247567091        2.3935445033
 C       -11.0669090419        1.1945736502        4.0822404548
 C        -9.7239387862        0.7147138266        3.7097945406
 C        -9.4979304814        1.1162513375        2.2083962073
 O       -10.1097405578        2.0645755841        1.7676618287
 C        -8.3959464329        0.3810508066        1.4320033069
 C        -7.2312467744        1.3134486368        0.8764089823
 O        -7.4608606028        2.2231943756        0.1709046488
 C        -5.7294952894        0.9282918448        1.0799212513
 C        -4.9648796210        2.1668971562        1.5417870782
 C        -5.7417520410        2.7429599479        2.7358581031
 O        -6.8232042331        2.2013919880        3.0161568218
 C        -5.2157181960        3.8962909619        3.5967829485
 C        -6.1974464460        5.0958715313        3.4200039503
 O        -5.9472011760        6.0217216465        2.6283912133
 C        -7.6131049905        4.9221060955        4.0438877365
 C        -8.6330365028        5.8382570274        3.3334785983
 C        -8.7317570361        5.4876501690        1.8021104546
 O        -8.9082631176        4.3419537105        1.5338180860
 C        -8.9777899268        6.6175064472        0.7561760222
 C        -8.4436331320        6.1511555982       -0.6338591369
 O        -8.8790020212        5.1862473556       -1.2019167007
 C        -7.2769063686        6.9471782176       -1.3434716827
 C       -10.5452176872        6.7677458020        0.6816983996
 C        -8.3012610051        7.9516957143        1.1349336733
 C        -5.1377748642        3.5364902807        5.1033572239
 C        -3.8104246737        4.3720990509        3.2167839182
 C        -7.8062649803       -0.7004475257        2.3060562111
 C        -9.0320701743       -0.2884765011        0.1863029061
 C       -13.6563656079        2.7393998253        3.8219767291
 C       -14.6148458114        0.5495371144        2.7933835056
 C       -13.8574400808        2.5347032287       -3.9500134355
 C       -11.9369007723        0.8324916036       -4.2420272387
 C        -7.9521437198        7.3742432460       -5.2549283352
 C        -9.3861149307        9.2234310029       -4.2823843843
 H       -12.2870037110        7.7739922521       -5.7605984672
 H       -11.9381579067        8.1707183680       -7.4288346493
 H       -11.6235267714        9.3643528174       -6.2415596591
 H        -9.2703066110        4.8701258391       -3.5644715409
 H        -9.7430428882        5.1085000580       -5.1975135404
 H       -12.2157925346        5.3392175271       -4.1621632489
 H       -11.4165074363        4.5151478148       -2.7957644394
 H       -13.8882044027        1.4412025426       -1.6776467070
 H       -13.7078527990        3.0266267333       -1.1624418426
 H       -11.7751790325        2.0049233720        0.2983686526
 H       -12.9250026682        0.5857527414        0.1519205700
 H       -11.3167809141        0.8564497723        5.0568277935
 H       -10.9533417335        2.2953587741        4.0552517316
 H        -9.6312080569       -0.3786365036        3.9217277596
 H        -8.9108229233        1.1963328931        4.2421075807
 H        -5.3432727657        0.5637581914        0.1846426675
 H        -5.5807192320        0.1379785680        1.8377253707
 H        -4.8704974906        2.9135394586        0.7011430834
 H        -3.9403968620        1.9028372585        1.8652221035
 H        -7.6403762988        5.1163320338        5.1050126862
 H        -7.8806268315        3.9045226190        3.8508099172
 H        -8.3481574966        6.8373640435        3.5840819593
 H        -9.6563778684        5.7212154786        3.7908645069
 H        -7.7618368981        7.6025480417       -2.0003342057
 H        -6.7124567807        6.2943739471       -1.9879601562
 H        -6.6013042318        7.4370898865       -0.6467317769
 H       -11.0510275444        5.9145028514        0.0747169251
 H       -10.7448566064        7.7367660824        0.1854834691
 H       -11.0488103883        6.7054273689        1.6863543873
 H        -8.4606647308        8.7184009588        0.3532388093
 H        -7.2860508689        7.8339428927        1.3245762393
 H        -8.8087626076        8.4148110938        1.9344514413
 H        -6.0326035203        3.1434467801        5.5100084550
 H        -4.9046138848        4.3425300539        5.7330382134
 H        -4.4065365027        2.7479980497        5.2443878788
 H        -3.4118982576        5.0474841727        3.9008853783
 H        -3.7878698210        4.8273725227        2.2169243895
 H        -3.1569615159        3.4714428653        3.0949178505
 H        -7.2897782221       -0.1962433947        3.1764239346
 H        -7.0107656451       -1.2798101062        1.8132770360
 H        -8.5215977687       -1.3149974342        2.7198176097
 H        -8.3265110311       -0.7522128413       -0.4888420308
 H        -9.6465650788        0.4335724304       -0.4057796302
 H        -9.7585402578       -1.0113942466        0.6076141343
 H       -13.3848924425        2.6423973865        4.8782209659
 H       -14.6953646280        3.1388239558        3.7916821609
 H       -13.0780168179        3.6074827238        3.4525124148
 H       -14.4603062845       -0.1873031046        3.5776496489
 H       -14.7093821320        0.0411914607        1.8421656434
 H       -15.5488132675        1.0356238522        3.0080816382
 H       -13.9869268002        2.6387995620       -4.9946686047
 H       -14.1507510531        3.4938469011       -3.4541583956
 H       -14.5542013522        1.7655966630       -3.5169011332
 H       -10.9659977481        0.5673011348       -3.7672824113
 H       -11.8612199244        1.1149167591       -5.2885204643
 H       -12.6831800852        0.0387230367       -4.1499427064
 H        -7.9442848012        6.3674819827       -5.6395707610
 H        -7.2092487051        7.4592633880       -4.4990658339
 H        -7.7681261749        8.0499185083       -6.1312987608
 H       -10.2995493810        9.7273070769       -4.0137018371
 H        -8.8569520284        9.8174352321       -4.9295442358
 H        -8.8002514428        9.2343273723       -3.3296606856
 Na       -9.5774991987        3.1581527263       -0.3486550901
