117

 C       -11.6191243840        8.4157218577       -6.4566605130
 C       -10.2907662143        7.5995494981       -6.2136630753
 O        -9.9046716306        6.7229763740       -6.9157206567
 C        -9.2904177714        7.8440950222       -5.0450787046
 C       -10.0002303588        6.8019696703       -3.9459142136
 O       -10.6421433053        7.1784222807       -2.9958231370
 C        -9.8975923064        5.2317468950       -4.2638925770
 C       -11.2125464832        4.6405587887       -3.8881844254
 C       -11.5909224109        3.2267859833       -4.4947740965
 O       -11.6297911437        3.0934892223       -5.7307190662
 C       -12.3754458681        2.1815005458       -3.7511426145
 C       -12.0715128566        2.2047520668       -2.1753585972
 O       -10.8986583873        2.2870053503       -1.8590777505
 C       -13.1941468149        2.0758234125       -1.1723289873
 C       -12.7389463520        1.6760093372        0.2443456063
 C       -13.5582201543        2.3810006485        1.3523337444
 O       -14.1289987568        3.4072686070        1.1968871718
 C       -13.5369554126        1.6390963320        2.7283400347
 C       -12.2216657447        0.8406603448        2.9737324571
 O       -11.9129345322       -0.1454479619        2.2736768742
 C       -11.2493104300        1.2873900244        4.0617171630
 C        -9.8176873169        0.7706006327        3.7681735234
 C        -9.4167686128        1.1074631100        2.3413388816
 O       -10.1033284767        1.9830661863        1.7735719002
 C        -8.3614418389        0.2445955947        1.5401936271
 C        -7.2087627272        1.2485274899        0.8858508214
 O        -7.5925752892        2.1419845596        0.1111806122
 C        -5.6915980411        0.9683133666        1.1169373138
 C        -4.8359487483        2.1723801764        1.5868784469
 C        -5.6991156560        2.7508147030        2.7920414477
 O        -6.8341369151        2.3048506101        2.9136929880
 C        -5.1866864264        3.8845680368        3.6715865564
 C        -6.2269373477        5.0923520402        3.3049414753
 O        -5.8385444584        5.9828978190        2.6209649565
 C        -7.6085154509        4.9661820570        3.8834654854
 C        -8.6331916313        5.9626355368        3.2879434279
 C        -8.8305415510        5.5390706299        1.8403940208
 O        -8.8127590243        4.3356774557        1.5567608796
 C        -8.9359077965        6.6737171659        0.6873709006
 C        -8.3847065072        6.1125536933       -0.6980974210
 O        -8.7711373034        5.0868421273       -1.2830766718
 C        -7.3852022376        7.0050940419       -1.4169207628
 C       -10.4367177874        6.8769041086        0.6599620056
 C        -8.4076019015        8.0316541809        1.1192561523
 C        -5.2076137781        3.4678726977        5.1438812684
 C        -3.7513277898        4.3783989822        3.2381116934
 C        -7.7034739594       -0.9490723003        2.2751421645
 C        -9.0804666914       -0.2996000709        0.2115542126
 C       -13.6369022968        2.7502914527        3.7862229305
 C       -14.7239577603        0.6849698340        3.0016646909
 C       -13.8389715378        2.5405257510       -4.0294782240
 C       -11.9627762681        0.7886171596       -4.2857493628
 C        -7.8811471486        7.3049766156       -5.2895604166
 C        -9.4010858532        9.1531012447       -4.3217191420
 H       -12.3775817328        8.3143648503       -5.6705017875
 H       -12.1046546667        8.1293801713       -7.3610780022
 H       -11.4632752675        9.5101118974       -6.5605734582
 H        -9.0357502425        4.7804829501       -3.7086229619
 H        -9.6877013525        5.1226121431       -5.2722469777
 H       -12.0681577543        5.1625729266       -4.3096822047
 H       -11.3518716141        4.5803384795       -2.8368908888
 H       -14.0753608034        1.5153644564       -1.5322765084
 H       -13.6018657082        3.0761977748       -0.9213871980
 H       -11.6946880857        2.0314292794        0.2269320003
 H       -12.9202995666        0.6086700924        0.3101015272
 H       -11.5725151314        0.8197123473        5.0189416258
 H       -11.2290792758        2.3860787260        4.1707226298
 H        -9.8975582651       -0.3380895684        3.7575851169
 H        -9.0215996008        0.9924351774        4.4525853655
 H        -5.3787869035        0.7626677505        0.0840244404
 H        -5.4930511733        0.1214099381        1.7037811421
 H        -4.6351779741        2.8736653172        0.7292162987
 H        -3.8449413970        1.8095266486        1.9082698650
 H        -7.4750564117        5.1989511273        4.9741167588
 H        -8.0293899857        3.9434352354        3.7639753998
 H        -8.2995487517        6.9619539445        3.4122590434
 H        -9.5598802835        5.8971855707        3.8348260304
 H        -8.0351309993        7.7591019489       -1.8483508028
 H        -6.9126233711        6.5420155469       -2.2438438953
 H        -6.6563222681        7.4269807695       -0.7068604735
 H       -10.9142375394        5.9866274926        0.3364795557
 H       -10.7038055936        7.6940152637       -0.0711957794
 H       -10.8795202346        7.1308195250        1.6861957386
 H        -8.3888173549        8.7282775219        0.3539239082
 H        -7.3742305365        7.9871051793        1.5031896398
 H        -9.1099260937        8.4956206331        1.7790837250
 H        -6.0586951855        2.9295625475        5.4082148821
 H        -5.2375273744        4.3146016733        5.8442160875
 H        -4.3752757492        2.8335633860        5.3387956736
 H        -3.4523561676        5.3283812893        3.7547765596
 H        -3.6014702557        4.4447875725        2.1583005562
 H        -3.0641140288        3.5823362673        3.4696819443
 H        -7.4283194450       -0.7929979495        3.2273734975
 H        -6.8004771942       -1.3260837508        1.8057061975
 H        -8.4945494355       -1.7390321342        2.2474351695
 H        -8.4796995229       -0.5717308920       -0.6256582946
 H        -9.7441811794        0.5067825883       -0.1507954252
 H        -9.7732593376       -1.0718532536        0.5265469337
 H       -13.3590674671        2.3526292357        4.7660154978
 H       -14.5679304935        3.2946183071        3.9620146726
 H       -12.8487548380        3.5944448350        3.5691782886
 H       -14.6670933441        0.2652165525        3.9335127268
 H       -14.7738253377       -0.1002212759        2.2452761937
 H       -15.6528032422        1.2354560218        2.9996845866
 H       -13.9173115784        2.7672286982       -5.1153251797
 H       -14.0254465986        3.4557561875       -3.5139330054
 H       -14.5569349553        1.8792717252       -3.6600085070
 H       -10.9666693535        0.5277428912       -3.8784065248
 H       -12.0222452791        0.9120326490       -5.3875213171
 H       -12.6980323696        0.0770206656       -3.9611887306
 H        -7.8850882189        6.2597820601       -5.4937320543
 H        -7.2302889750        7.5025403855       -4.4420989759
 H        -7.5388060328        7.7983880241       -6.1699453098
 H       -10.4085186749        9.5656153849       -4.2098013087
 H        -8.7929742529        9.9113735811       -4.8105707241
 H        -9.0472610508        9.0800783797       -3.3020383333
 Na       -9.5743176302        3.2127273167       -0.2308159384
