117

 C       -11.3384374353        8.6579460392       -6.5611090214
 C       -10.1648895795        7.6719724579       -6.3374211638
 O       -10.0551731538        6.8021554234       -7.1623245275
 C        -9.3545055723        7.6861837028       -4.9842346877
 C       -10.0611123472        6.6631048681       -4.1007985636
 O       -10.6674669235        7.0923515303       -3.1779927158
 C       -10.1043076934        5.1564546430       -4.5451283955
 C       -11.0882877997        4.4268800651       -3.7265612056
 C       -11.5284546576        3.1139664265       -4.4707917714
 O       -11.0722797757        2.8292399312       -5.5701732443
 C       -12.5264694432        2.0213482635       -3.6785517481
 C       -12.2060205734        2.0688595374       -2.1176588630
 O       -11.0084363867        2.1115860821       -1.8039780332
 C       -13.3482964000        2.3128861694       -1.1166562241
 C       -13.1016354497        1.6533367630        0.2597806773
 C       -13.4882920919        2.5637866049        1.4183402177
 O       -13.8666449541        3.6850010802        1.2993028748
 C       -13.5721263728        1.8850834176        2.8922589896
 C       -12.3003065155        0.9709166384        3.1298337968
 O       -12.3094992926       -0.0794682479        2.4653241407
 C       -11.1004171938        1.2112407831        4.0928457308
 C        -9.8827972948        0.4330216440        3.6303435079
 C        -9.3562260306        0.8984535664        2.2681665438
 O        -9.7997293648        1.9834368495        1.8564253360
 C        -8.2916621345        0.0156937728        1.3875158531
 C        -7.2307419936        0.9658574686        0.8204769209
 O        -7.5496185689        1.9087543134        0.1333761568
 C        -5.7201449209        0.8044245207        1.2479372962
 C        -5.0411453170        2.1106554430        1.6433606661
 C        -5.8008940548        2.7074212524        2.8297374507
 O        -6.8909313175        2.2041435596        3.0948467839
 C        -5.2328770347        3.8718215812        3.6849623946
 C        -6.1175025312        5.1954028657        3.2621277608
 O        -5.6824902626        5.9827014173        2.4669999978
 C        -7.4650839202        5.4047380483        3.9585864776
 C        -8.2954504174        6.3808674595        3.1891289061
 C        -8.6382665429        5.8707362735        1.7879217756
 O        -8.7978816855        4.6411334141        1.6596278585
 C        -8.9521748246        6.8376841224        0.6433291715
 C        -8.3121539613        6.2215651956       -0.7021554371
 O        -8.5312247018        5.0636365536       -1.0779785435
 C        -7.5795891024        7.1826192729       -1.6051972688
 C       -10.4093317404        6.8409590474        0.2931959598
 C        -8.5387004548        8.3066870251        0.9125441057
 C        -5.3636455303        3.5476792307        5.1826514215
 C        -3.7406652647        4.1878078352        3.4059912380
 C        -7.6974518915       -1.0600212232        2.3019431062
 C        -9.1660885207       -0.6214731896        0.2204468626
 C       -13.7632299691        2.9887352944        3.9784385703
 C       -14.8201377351        1.0455333152        2.8925417002
 C       -14.0270137861        2.3186594714       -4.0540929601
 C       -12.1190257571        0.6241373513       -4.1324707476
 C        -7.8807822255        7.3639319845       -5.3849171410
 C        -9.3533467943        9.0808022863       -4.4257726640
 H       -11.9812236282        8.8722684995       -5.6577559379
 H       -11.9260781493        8.2157173581       -7.3153852713
 H       -11.1275784959        9.6716492944       -6.9028055074
 H        -9.0755933431        4.7990904015       -4.3309074619
 H       -10.1959466705        4.9786250455       -5.5785048849
 H       -12.0499575192        4.9952827893       -3.5463236421
 H       -10.7384542091        4.0948043595       -2.7288374224
 H       -14.3781734888        2.0452297520       -1.4351709706
 H       -13.3959087838        3.3562208717       -0.9383329725
 H       -12.0123497679        1.6216001245        0.3227050138
 H       -13.6015324525        0.7200760606        0.2132816214
 H       -11.2697347372        0.9439802832        5.1004020528
 H       -10.8745042530        2.2905503549        4.1420069152
 H       -10.2374091361       -0.6218121889        3.4037877484
 H        -9.1416859187        0.3090200001        4.4077857484
 H        -5.1898926659        0.4600666938        0.3692040142
 H        -5.5679068427        0.0853753466        2.0677090800
 H        -5.1468845707        2.8680306540        0.8274714614
 H        -3.9665130393        2.0371706535        1.7286441917
 H        -7.3504914888        5.7901199831        4.9518511761
 H        -7.9861614193        4.4893812942        3.9926428758
 H        -7.6891984519        7.2752912271        3.0855614528
 H        -9.2467820380        6.7141366117        3.7510376922
 H        -8.1635923531        8.0900026836       -1.6242302407
 H        -7.5751952951        6.7752994222       -2.6121772884
 H        -6.5359629210        7.4259221462       -1.2478316117
 H       -10.7450731479        5.8223620432        0.1447405933
 H       -10.5584829521        7.2545782487       -0.6968674542
 H       -11.0340283212        7.5003140073        0.9087230790
 H        -8.9103026041        8.9554849901        0.1063953786
 H        -7.4550125244        8.5104868281        0.8546314445
 H        -8.9286997937        8.7191369429        1.8599912195
 H        -6.3608244126        3.4272631376        5.5746080172
 H        -5.0072894587        4.4324424826        5.7683357685
 H        -4.7546251878        2.6419110572        5.4504833229
 H        -3.5971234103        5.0769283932        3.9660541592
 H        -3.5220691640        4.3219943727        2.3646787124
 H        -2.9920050669        3.4497839283        3.6729783916
 H        -6.8948437908       -0.7974466245        2.9228304728
 H        -7.2293425718       -1.8343788611        1.5867816252
 H        -8.4880802823       -1.6538028875        2.7547242404
 H        -8.6389368203       -1.4523880327       -0.1863717735
 H        -9.2444079523        0.0438543243       -0.6714015868
 H       -10.1548022357       -0.9513148836        0.5814788544
 H       -14.0758870547        2.6613043179        4.8990193194
 H       -14.4877382296        3.7144643244        3.7087205769
 H       -12.8441335491        3.5832983270        4.0992949983
 H       -15.1271448507        0.8865021445        3.9250959980
 H       -14.6241474764        0.0286153450        2.4414257417
 H       -15.7410678057        1.5071577211        2.4617616537
 H       -14.2230858698        2.3435134675       -5.1420877365
 H       -14.3504989654        3.2730580285       -3.5743727219
 H       -14.6015773628        1.5360642913       -3.5223044429
 H       -11.0245499784        0.5774956170       -3.9763406404
 H       -12.2756373264        0.5857675741       -5.2263249046
 H       -12.6431443872       -0.1381531088       -3.5796389980
 H        -7.9018751133        6.4382906449       -5.9674498384
 H        -7.2059425506        7.2495510987       -4.5313987879
 H        -7.4614493650        8.1715260400       -6.0611565443
 H       -10.2140812625        9.1683433595       -3.7418158107
 H        -9.3239833532        9.8772037036       -5.1056387408
 H        -8.4597988445        9.1652347281       -3.7437061882
 Na       -9.5484955463        3.0871936948       -0.1273211263
