117

 C       -11.2536306216        8.8597311394       -6.7721060475
 C       -10.2214906996        7.8098520191       -6.5142577735
 O       -10.0853096150        6.9130211866       -7.3508758178
 C        -9.4275740743        7.6445568326       -5.1209142272
 C       -10.2032675465        6.6571225664       -4.2466183151
 O       -10.5511741894        6.9948214713       -3.0917092864
 C       -10.3074273120        5.1854527520       -4.6942934651
 C       -11.1016767501        4.3643323510       -3.7092412942
 C       -11.3443303185        2.9343761897       -4.2758459294
 O       -10.8786178276        2.5447364970       -5.2882589541
 C       -12.4400579543        2.0652785035       -3.4946478530
 C       -12.2306578454        2.1643721942       -1.9964148583
 O       -11.1002653467        1.9192378341       -1.5463700686
 C       -13.4216437632        2.5368335411       -1.0892954192
 C       -13.1501553767        1.7840800752        0.3173358112
 C       -13.3137541608        2.6736926341        1.5024113695
 O       -13.6108419615        3.8606683201        1.3439440989
 C       -13.4902922025        2.0078390705        2.8627236382
 C       -12.4401752833        0.8263414510        3.1159789601
 O       -12.6079435059       -0.2600709586        2.6720186635
 C       -11.1050004452        1.2705836731        3.9564806261
 C        -9.9393371934        0.3399990564        3.5449557311
 C        -9.3963898862        0.8881902328        2.2347783916
 O        -9.8478613469        1.8760413640        1.7705285833
 C        -8.3225995579       -0.0510115629        1.4747780974
 C        -7.2533436298        0.8839579349        0.8792537636
 O        -7.5013014539        1.7458795133        0.0352686915
 C        -5.7984660724        0.7321104921        1.2720815213
 C        -5.3360004816        2.1801381818        1.6949470982
 C        -5.9688030377        2.6693587676        2.9598184689
 O        -6.9154737604        2.0809723691        3.4599225977
 C        -5.2864833077        3.8727241907        3.6830372365
 C        -5.9744351918        5.1978118094        3.2590863964
 O        -5.5187039397        5.8598698507        2.3026893641
 C        -7.2939520247        5.6210267435        3.9380012059
 C        -8.0280439457        6.7170518240        3.0319323671
 C        -8.7185037937        6.0507801190        1.7964680659
 O        -8.9481861952        4.8787434486        1.7162140132
 C        -9.1013944176        6.9134232466        0.5536914701
 C        -8.3207154212        6.2945646021       -0.7452943547
 O        -8.3297848150        5.1221886366       -0.9929972751
 C        -7.4533521400        7.1555952555       -1.7372328960
 C       -10.6395250638        6.6568594535        0.3216172100
 C        -8.6674159308        8.4365422142        0.6337748675
 C        -5.5259150433        3.6197733361        5.2498776120
 C        -3.7984271587        3.9846573611        3.3298595406
 C        -7.8386294358       -1.2057905592        2.4167159997
 C        -9.0901424190       -0.6544317858        0.2794856656
 C       -13.4446163182        3.0387837924        3.9294617635
 C       -14.8650938473        1.1498705767        2.7988050640
 C       -13.8390824701        2.4002845544       -4.0535524958
 C       -12.1360651858        0.5720991475       -3.9443204958
 C        -8.0789559313        7.1123849128       -5.5366583729
 C        -9.2237474881        9.0104846065       -4.4505031602
 H       -12.0525187072        8.8406992781       -6.0619843406
 H       -11.6394017290        8.8071331501       -7.8292282755
 H       -10.8831687641        9.8719029314       -6.6029923084
 H        -9.3388623346        4.7853844977       -4.8688910892
 H       -10.7255071992        5.2502924929       -5.7554982804
 H       -12.0587184113        4.7794712125       -3.4784371470
 H       -10.5895788953        4.2675418685       -2.7575588329
 H       -14.4218331326        2.4744237197       -1.4341275394
 H       -13.2263540801        3.6319576349       -0.9105508071
 H       -12.0797182125        1.6835879812        0.1902878944
 H       -13.7633382769        0.8580668818        0.3169212829
 H       -11.2704109198        1.0772226594        5.0588320624
 H       -10.8332936423        2.3238741417        3.9661960007
 H       -10.2703110106       -0.6739460099        3.5143812888
 H        -9.1165853357        0.3130189165        4.2998011725
 H        -5.1613549125        0.4533493174        0.4406928600
 H        -5.6815062407        0.0577022526        2.1172892016
 H        -5.4014470505        2.8711130282        0.8621625434
 H        -4.2285643200        2.2107947833        1.8910776971
 H        -7.1150728336        6.1010359372        4.9195736998
 H        -7.9737668402        4.7342782889        4.0689087062
 H        -7.2793502897        7.4761979108        2.7577782164
 H        -8.7910835696        7.2347840161        3.5116714337
 H        -8.0594034562        7.8251141992       -2.3462612262
 H        -6.8611824402        6.4556201057       -2.3429438686
 H        -6.8358179083        7.7601256805       -1.1551616048
 H       -10.7387759457        5.5878938194       -0.0149365249
 H       -11.1884196564        7.2448396182       -0.4334765830
 H       -11.1617365888        6.9380619764        1.2310887605
 H        -8.7325275099        9.0080432996       -0.2945732473
 H        -7.6496487310        8.5225902085        0.9302330915
 H        -9.0986393451        8.9147753541        1.4800950719
 H        -6.5937630439        3.6889912293        5.4960999030
 H        -5.0700705521        4.3877255780        5.7972227266
 H        -5.1046332618        2.7082992331        5.5686487903
 H        -3.2439903823        4.5527805689        4.0706789622
 H        -3.6701346118        4.4171117049        2.3296814271
 H        -3.2747699610        3.0181516031        3.2685270467
 H        -7.7861555297       -0.6513198120        3.4220326898
 H        -6.8729498939       -1.5398076897        2.2290495704
 H        -8.4006104178       -2.1031906403        2.4358986640
 H        -8.3711354534       -1.2984258957       -0.3092362868
 H        -9.3553122751        0.1068020628       -0.4275603616
 H        -9.9422880557       -1.2722098810        0.5630879385
 H       -13.5171504660        2.5343720392        4.9610391741
 H       -14.3357406149        3.7210704609        3.9749790424
 H       -12.6066443809        3.6950754745        3.8940407737
 H       -15.0677560920        0.5534176474        3.7092371356
 H       -14.9301428031        0.4699692145        2.0113487813
 H       -15.6786133419        1.8262703821        2.7524755483
 H       -13.6635519048        2.3682682976       -5.1110840881
 H       -14.1582410275        3.4136365653       -3.7893218934
 H       -14.6001031286        1.6383880144       -3.7893918199
 H       -11.2262194320        0.2488527091       -3.4510046797
 H       -11.9853330827        0.5012938787       -5.0143929333
 H       -13.0388109852        0.0542970023       -3.5547676158
 H        -8.1777259414        6.3528096556       -6.3151125585
 H        -7.5757823538        6.6844163937       -4.6655425081
 H        -7.4285663883        7.8881255841       -5.8516489847
 H        -9.7874682528        9.0128671774       -3.5302250045
 H        -9.7344487711        9.7779382712       -5.0810326650
 H        -8.2245116765        9.3501672748       -4.2819767663
 Na       -9.4056141239        3.0963959218       -0.2372809638
