117

 C       -11.1445021467        9.0997709757       -6.8615943941
 C       -10.2842257572        7.8506401712       -6.7263592829
 O       -10.2706073495        6.9914794891       -7.5557562096
 C        -9.4684946772        7.6362619973       -5.2997810747
 C       -10.2157638789        6.6652116911       -4.3321763226
 O       -10.4164689081        6.9459737686       -3.1661835268
 C       -10.6377809306        5.2954366961       -4.8788350848
 C       -11.0764272833        4.2838639329       -3.7881592654
 C       -11.1802288155        2.8232316085       -4.2400217662
 O       -10.5026485813        2.3737224786       -5.1365181316
 C       -12.2409840585        1.9647106747       -3.4432784493
 C       -12.0671450356        2.1382345823       -1.9230269056
 O       -10.9002489519        2.0734889770       -1.5176573232
 C       -13.2627220519        2.5761988409       -0.9862533195
 C       -13.1871887413        1.8810021146        0.3661981816
 C       -13.3168329589        2.7851073772        1.5913780441
 O       -13.1546351210        3.9750149341        1.5834596757
 C       -13.6617670360        2.0395250910        2.9989735686
 C       -12.5486021906        0.8236909130        3.1313331693
 O       -12.7854269672       -0.3166888823        2.6504738845
 C       -11.3306681006        1.1949168641        3.9373737452
 C        -9.9673072161        0.5485123582        3.5571966547
 C        -9.5010810441        0.7188170912        2.1475411514
 O        -9.9610055818        1.7117745881        1.5381233828
 C        -8.4738319164       -0.1500355818        1.4871229325
 C        -7.3486091658        0.8004054845        0.8783135834
 O        -7.5631477722        1.5378203912       -0.0516488221
 C        -5.9085299282        0.8016210158        1.3340493044
 C        -5.4184550181        2.1713697238        1.7276562669
 C        -5.9635675826        2.6463066985        3.1147660702
 O        -6.9052755376        2.0626875359        3.6102678209
 C        -5.2892077360        3.8587337731        3.8398188491
 C        -5.9532286274        5.1746326297        3.0777309632
 O        -5.3681132056        5.5782383955        2.1427822669
 C        -7.1992053930        5.8427309543        3.6403356797
 C        -7.8494927854        6.8150685244        2.6831943050
 C        -8.6919297018        6.0781650622        1.6428013615
 O        -8.9810425484        4.8957861473        1.7923758417
 C        -9.0930579350        6.8732244188        0.3895081328
 C        -8.2868928986        6.2313817643       -0.8111300263
 O        -8.3696609883        5.0340843476       -0.9975566064
 C        -7.3666178314        7.1563138833       -1.5779607328
 C       -10.6453384162        6.6466392776        0.1416967640
 C        -9.0527654586        8.4229412451        0.5244988199
 C        -5.5913291958        3.8730693733        5.3512979087
 C        -3.7752514628        3.9246391355        3.6539518210
 C        -7.8030084072       -1.2809200165        2.3503487931
 C        -9.1700689365       -0.7865187750        0.2501359893
 C       -13.4355313505        3.0375204090        4.1408461701
 C       -15.1333852873        1.5076019150        3.1145457933
 C       -13.6097688683        2.5640585793       -3.9510718885
 C       -12.2191241548        0.4030085231       -3.6427174844
 C        -8.1351280759        6.8334229065       -5.6366760886
 C        -9.1964881336        8.9812889405       -4.4903407162
 H       -11.9119366691        9.0736657941       -6.0823037534
 H       -11.6528538355        9.0730751709       -7.7906532017
 H       -10.7242610272       10.0904437512       -6.7149455936
 H        -9.7810218034        4.9427811890       -5.5294267917
 H       -11.3698415024        5.5550628389       -5.6058901921
 H       -12.0688543705        4.5650802435       -3.3802833702
 H       -10.4023966161        4.2550977053       -2.9269580836
 H       -14.2628645250        2.3505214193       -1.4899343450
 H       -13.2548139725        3.6541450248       -0.7791239653
 H       -12.1485120439        1.5154262778        0.2785474642
 H       -13.9523399821        1.1259179024        0.4251184222
 H       -11.5466483031        1.1273768096        4.9837865777
 H       -11.2520105075        2.2884930638        3.7971511361
 H       -10.0416847132       -0.5635438123        3.7141244031
 H        -9.1620252068        0.8235464360        4.2059489246
 H        -5.2885753505        0.5559773459        0.4268816792
 H        -5.6905200272        0.0752616485        2.1236337959
 H        -5.6315396263        2.8589770171        0.8898259314
 H        -4.3560059608        2.1697435669        1.7128499947
 H        -6.9713440676        6.3823864750        4.5710065135
 H        -7.9846100142        5.1255115187        3.8469070835
 H        -7.0908259387        7.3580720121        2.1214477604
 H        -8.4948494166        7.5854237677        3.2417843617
 H        -7.9575990468        7.5530690277       -2.4212631273
 H        -6.5353595446        6.5576649549       -1.9345179284
 H        -7.0682440828        8.0730315232       -0.9822305785
 H       -10.8316214742        5.6526284040       -0.0359273089
 H       -10.9905309558        7.1340289125       -0.7494525707
 H       -11.2581309053        7.0968827161        0.9135102278
 H        -9.4080618895        8.7836985867       -0.4173323326
 H        -8.1136852004        8.9873578578        0.7867196249
 H        -9.6065152677        8.7689526255        1.4058316843
 H        -6.6302881681        3.5407059512        5.4636441746
 H        -5.3968053169        4.8799488137        5.8949690539
 H        -4.8893359273        3.1512598009        5.8537144762
 H        -3.2627597309        4.8337235027        4.0651416926
 H        -3.5776461946        3.9369112656        2.5658068038
 H        -3.2307392541        3.0755305829        4.0765250688
 H        -7.1978225155       -0.9219456341        3.1000454181
 H        -7.3380055363       -2.0634537007        1.6848618064
 H        -8.6171325510       -1.8885607407        2.8707497617
 H        -8.5809493103       -1.1057121312       -0.5577621217
 H        -9.8420685207        0.0048164130       -0.1077676334
 H        -9.7969130110       -1.6210090140        0.5466496272
 H       -13.3783362844        2.6958957741        5.1246156030
 H       -14.2493450525        3.7150520399        4.1643578295
 H       -12.5548366826        3.7056181767        3.9310087857
 H       -15.2280128034        1.0434305169        4.0497891839
 H       -15.4782021849        0.7112480098        2.4177387389
 H       -15.8833261733        2.3190138821        3.0901648269
 H       -13.7944259280        2.4049579120       -5.0366661813
 H       -13.6330836020        3.5968485969       -3.7160961412
 H       -14.3395540374        2.0123186425       -3.4526053566
 H       -11.3500955704       -0.0787404895       -3.1938958207
 H       -12.0901477314        0.2975249608       -4.7347577721
 H       -13.1576454598        0.0548787300       -3.2958061188
 H        -8.4300893990        5.9605052078       -6.1783935416
 H        -7.5138664971        6.5725850385       -4.8006827485
 H        -7.4916728399        7.4420320772       -6.2761649162
 H        -9.5368561171        8.9653741958       -3.4235262451
 H        -9.6182977297        9.8732784578       -4.9641029757
 H        -8.0957742721        9.0814612905       -4.5657971897
 Na       -9.2825628549        3.2348468034       -0.0778095716
