117

 C       -11.0263754803        9.1507338918       -6.9007722537
 C       -10.2973002086        7.8216853675       -6.7871418186
 O       -10.6030399984        7.0099408396       -7.6167865867
 C        -9.4197630215        7.5164898148       -5.4916719116
 C       -10.2676378361        6.6358189657       -4.5306956835
 O       -10.3610583376        6.8864616387       -3.3757475328
 C       -10.8784462084        5.2798074008       -5.0488960006
 C       -10.7270832660        4.2967019844       -3.8391333593
 C       -10.9516081666        2.7968764662       -4.0755071323
 O       -10.2480266175        2.1190618663       -4.8001140440
 C       -12.1811826910        2.0604402803       -3.2627706916
 C       -11.9534733087        2.3991020485       -1.7901357149
 O       -10.7529729439        2.5292231004       -1.4769370858
 C       -13.0171703205        2.8069542019       -0.7836516167
 C       -13.0679510569        1.9444557037        0.5703244980
 C       -13.0984332321        2.8715384380        1.8265637083
 O       -12.7757687655        4.0289809459        1.7669475748
 C       -13.5788668459        2.1660903845        3.1576943687
 C       -12.5547993684        1.0619338933        3.4330596473
 O       -12.7794936935        0.0318513309        2.7718652842
 C       -11.2190848930        1.1874713964        4.0996042836
 C       -10.3260994928        0.0745833864        3.4425194076
 C        -9.7989300302        0.5484584984        2.1171310319
 O       -10.2761253121        1.5658981524        1.5629468681
 C        -8.6043125401       -0.1765945882        1.4363762996
 C        -7.4756920884        0.8835030437        0.9500477318
 O        -7.7414411804        1.6493897263        0.0467729295
 C        -6.0654936673        0.7453021798        1.4810051250
 C        -5.4927840626        2.0934838487        1.9028478050
 C        -5.9784337853        2.6317728608        3.2534457555
 O        -6.8591791472        2.0669618604        3.8567687047
 C        -5.3423350619        3.9389516108        3.9148874618
 C        -5.8628049967        5.1377674786        2.8859284047
 O        -5.4110923372        5.1911345998        1.7906188952
 C        -7.0354480930        5.9484566318        3.3883085937
 C        -7.6782381735        6.7825046369        2.2654309157
 C        -8.5979798011        5.9730919988        1.4412480005
 O        -8.9092681015        4.8266526158        1.7544554207
 C        -9.1945512349        6.7211947398        0.2140959116
 C        -8.2959522220        6.1770143551       -0.9070817497
 O        -8.3855267154        5.0469842981       -1.3545005089
 C        -7.3639378940        7.2051750494       -1.5198016002
 C       -10.6120396046        6.1606432430       -0.0673491878
 C        -9.2811524761        8.2571585141        0.2920705858
 C        -5.8846662658        4.0300794319        5.3089988084
 C        -3.8042637913        3.9059122484        4.0134651004
 C        -8.0283778652       -1.2725092501        2.3810805870
 C        -9.2054996034       -0.7398557165        0.1232596575
 C       -13.6389327893        3.3272874522        4.2149428206
 C       -15.0118486199        1.5745418470        2.9958369972
 C       -13.6609243199        2.5376859047       -3.6310764033
 C       -11.9678409517        0.5077894739       -3.5365649472
 C        -8.1239925123        6.8134637746       -6.0867673888
 C        -9.0036414497        8.8437820779       -4.6995405489
 H       -11.3102617234        9.6882062191       -5.9286143812
 H       -11.9616017882        8.9312074102       -7.3522032049
 H       -10.5382900097        9.9203920993       -7.4932251365
 H       -10.3353649631        5.0134953893       -5.9938128351
 H       -11.9396797372        5.5667473946       -5.2870760080
 H       -11.2642793523        4.6485078476       -3.0135325370
 H        -9.6616152147        4.2795363394       -3.5605932560
 H       -14.0294270101        2.9104896465       -1.1877713789
 H       -12.7414888952        3.8020914290       -0.4177378733
 H       -12.0991148012        1.3699082822        0.6717295269
 H       -13.9160673922        1.2579055688        0.5045388094
 H       -11.3252003215        1.2513444309        5.1967155967
 H       -10.8828983735        2.2240060115        3.8201844002
 H       -10.9258365572       -0.8282505166        3.2866699994
 H        -9.4933913918       -0.2813992296        4.0317853311
 H        -5.5934670209        0.3645873994        0.5913414884
 H        -5.8328961965        0.0191917317        2.2882663443
 H        -5.7754089120        2.8868654758        1.1949976232
 H        -4.4022996993        2.1352954083        1.8803691296
 H        -6.6523389047        6.6572691834        4.1693310159
 H        -7.8239488859        5.3230056011        3.8852236668
 H        -6.9228481694        7.1383228048        1.6171106853
 H        -8.2901702313        7.6066419833        2.5969734405
 H        -7.9676988015        7.9904039265       -1.8844384709
 H        -6.7310693403        6.8063280859       -2.2671578969
 H        -6.8030474470        7.6843805767       -0.6804320874
 H       -10.7857858774        5.1089969830        0.2231918283
 H       -10.8419466538        6.2581148813       -1.1624282778
 H       -11.4042243968        6.7821395989        0.4397469110
 H        -9.7637176132        8.5974734481       -0.6223572767
 H        -8.4318397544        8.8775958634        0.5104112431
 H       -10.0041260377        8.5066298715        1.0710636362
 H        -6.9136885933        4.0471582764        5.3069575222
 H        -5.4267717286        4.9487935752        5.6355261480
 H        -5.5345234588        3.2247510019        5.9345116263
 H        -3.4023687234        4.5798102379        4.7123370575
 H        -3.2987264898        4.2336603818        3.1204111614
 H        -3.5062018584        2.9244306880        4.4038504954
 H        -7.9894612635       -1.0186671500        3.3675189251
 H        -6.9691636840       -1.4715433667        1.9947892540
 H        -8.6118084560       -2.1818694787        2.3595642338
 H        -8.6459563873       -1.6237593045       -0.1070484423
 H        -9.1497496416       -0.0070849108       -0.7230342898
 H       -10.2606487577       -1.0854798594        0.1458299180
 H       -13.8678139174        2.8950507441        5.1808133965
 H       -14.3575932721        4.1595226494        4.0479155033
 H       -12.5953663258        3.7513960665        4.4592359736
 H       -15.4619485581        1.3333316181        3.9332221154
 H       -15.0179868052        0.6167652581        2.4578770192
 H       -15.6502694156        2.2213319978        2.4034572916
 H       -13.6736017374        2.4223146962       -4.7093277773
 H       -13.8054071073        3.6047705127       -3.4001401678
 H       -14.4214638881        1.8366011072       -3.2431154572
 H       -10.9025316358        0.2591167371       -3.3234926334
 H       -12.2041492504        0.2261336087       -4.5856723482
 H       -12.6135960701        0.0298105265       -2.7984162441
 H        -8.3407782275        5.9776390599       -6.7604418695
 H        -7.5787095867        6.4311439323       -5.2433904862
 H        -7.4313616912        7.5551561085       -6.5918595682
 H        -9.1718100987        8.6790597761       -3.6318436853
 H        -9.5833478402        9.6395474822       -5.0040359587
 H        -7.9372947105        9.0196553398       -4.9581013263
 Na       -9.4105005759        3.2847951415        0.1456898355
