117

 C       -11.0444817425        9.2010649404       -6.9655485127
 C       -10.5283330664        7.7645249607       -6.8297728376
 O       -10.8930735242        6.8555500549       -7.5125433863
 C        -9.3819798167        7.4267606658       -5.7854544583
 C       -10.1247159482        6.6521551298       -4.5515019066
 O       -10.4603421568        7.0780910253       -3.4963636811
 C       -10.4501627209        5.1467946268       -4.9338727871
 C       -10.7050741145        4.3181195464       -3.7342143430
 C       -10.9617635797        2.8113105184       -4.0146151465
 O       -10.3993809802        2.1699080764       -4.8738056184
 C       -12.1587100350        2.2267537462       -3.1497518295
 C       -11.9242101476        2.7437488143       -1.7714134449
 O       -10.7898243957        2.4848240308       -1.3526337168
 C       -12.9014470847        3.2625736715       -0.7898996402
 C       -12.9805651282        2.2870274977        0.4791172339
 C       -12.9083873274        3.0353256190        1.8403288800
 O       -12.4863425901        4.1559527257        1.8065762109
 C       -13.4473462809        2.3094876277        3.0556952425
 C       -12.6696260185        0.9322381366        3.3635807270
 O       -13.1364027697       -0.1061261482        2.9775260639
 C       -11.3779029006        1.0496129208        4.2626378430
 C       -10.0964726980        0.2434124826        3.7400899683
 C        -9.7081438360        0.6108097802        2.2567010873
 O       -10.1974664247        1.6335096701        1.7768795898
 C        -8.6336314707       -0.1927642845        1.4680848782
 C        -7.4937454979        0.8547901527        1.2548394475
 O        -7.6776159656        1.9564161542        0.7740921984
 C        -6.0216730247        0.5808324295        1.6732495095
 C        -5.3987524853        1.9527236320        2.0846076710
 C        -6.1045948218        2.4936228689        3.3977604921
 O        -6.9433646093        1.8480656266        3.9996088343
 C        -5.6076865824        3.9251140806        3.9026080978
 C        -5.9993296266        5.0734488121        2.8366101798
 O        -5.5511153048        5.0003240360        1.7290471051
 C        -6.8964793846        6.2543885095        3.2016094550
 C        -7.5611715535        6.9306762037        2.0273918348
 C        -8.5213690113        5.9717973903        1.3429200018
 O        -8.7068537107        4.8076319598        1.6961623877
 C        -9.2143655609        6.5136919706        0.1008659591
 C        -8.3529121681        5.9479081269       -1.0797500285
 O        -8.4783721848        4.7488808424       -1.3139913334
 C        -7.4162787262        6.8936576320       -1.8022280510
 C       -10.6265218348        5.8688432788       -0.0329865014
 C        -9.4989068746        8.0462566446        0.0411344832
 C        -6.0811486236        4.1768423829        5.3480473771
 C        -4.0531111323        3.8937194898        3.9049420498
 C        -8.2029063504       -1.5211296884        2.1169131673
 C        -9.2701516323       -0.5282853835        0.1026563589
 C       -13.3627484784        3.1966120471        4.3327751056
 C       -14.9691464833        1.9779544820        2.7213987516
 C       -13.4002486390        2.6392978543       -3.9458674823
 C       -12.0473531199        0.6088149649       -3.0374876507
 C        -8.2782731243        6.5332523740       -6.5014705948
 C        -8.7363081758        8.7876058326       -5.2931557043
 H       -11.8220653454        9.5119333289       -6.2058928582
 H       -11.5400760611        9.3110625830       -7.8947116597
 H       -10.2591120696        9.9284158462       -6.9813304178
 H        -9.6189442731        4.7494944018       -5.4052663812
 H       -11.2968831284        5.1638471549       -5.6108753935
 H       -11.5481530379        4.6380138330       -3.0932118995
 H        -9.7703870352        4.3329954228       -3.0867814615
 H       -13.8493625571        3.4764869036       -1.1942861455
 H       -12.4811968533        4.2244062120       -0.4555637469
 H       -12.1648073900        1.5302875080        0.4906415356
 H       -13.8948713885        1.6656696484        0.3587054969
 H       -11.5888264216        0.7578925082        5.2984438347
 H       -11.0610928250        2.0644208472        4.3158486063
 H       -10.1792609362       -0.8071854134        3.9638607040
 H        -9.2971040646        0.6319035279        4.4521016125
 H        -5.4053070912        0.1420584474        0.9317105574
 H        -6.0313508206       -0.1359928431        2.5187043571
 H        -5.5328530580        2.6330977595        1.2458846706
 H        -4.2854723633        1.9050423443        2.2690365501
 H        -6.3931074212        7.0470359196        3.6723038330
 H        -7.6224521784        5.9774879092        3.9447204565
 H        -6.7776776817        7.2287925758        1.2413311647
 H        -8.1019101258        7.8072856808        2.3782275401
 H        -7.8655393186        7.8805226763       -2.0160257612
 H        -7.0494613511        6.3932203864       -2.7087031048
 H        -6.5310438259        7.0654215417       -1.1372166549
 H       -10.5296493267        4.7816232086        0.1181777460
 H       -11.0437866028        6.0985617785       -0.9739638148
 H       -11.2615439345        6.1313805253        0.7670782364
 H       -10.1567660124        8.3886844687       -0.8207868858
 H        -8.6077449575        8.6329299875       -0.0017057650
 H       -10.1412734772        8.3587660640        0.8723188487
 H        -7.1658289025        3.9471588094        5.4303267452
 H        -5.7883328692        5.2133427325        5.5893004344
 H        -5.5513570080        3.3912009641        5.9729353223
 H        -3.6199431699        4.7883618152        4.2831297526
 H        -3.6648654972        3.9014555092        2.8776435534
 H        -3.6588814362        3.0309053326        4.5114833572
 H        -7.5342783070       -1.3410314473        2.9423612818
 H        -7.5903587750       -2.1356362773        1.3780083828
 H        -9.0520598142       -1.9853414121        2.5402953175
 H        -8.5023214978       -0.7399898436       -0.6208240455
 H        -9.9751843492        0.1885902433       -0.2756508417
 H        -9.8090774429       -1.4521064232        0.2075900995
 H       -13.7119035550        2.7090739945        5.1938218223
 H       -13.9590335336        4.0795107839        4.1673677164
 H       -12.3802201569        3.5431869660        4.5507249883
 H       -15.5548026648        1.5863571954        3.5925527595
 H       -15.1170429655        1.3848245142        1.8203178729
 H       -15.4304854541        2.9195336742        2.4135777217
 H       -13.2354472745        2.2024376204       -4.8765619251
 H       -13.4903339759        3.7298609525       -4.0763329919
 H       -14.3472868869        2.2875777880       -3.4512256678
 H       -11.1694619100        0.4009555569       -2.4308995102
 H       -11.9999593468        0.1932461975       -4.0274818451
 H       -12.9442557399        0.2072294904       -2.5085568097
 H        -8.6483166618        5.8459720104       -7.2582655623
 H        -7.6684935312        5.9899778806       -5.8162172948
 H        -7.6742426273        7.2703442243       -7.0506078827
 H        -7.7883223611        8.5377505581       -4.7691818977
 H        -9.4650579291        9.1812299752       -4.6449613209
 H        -8.5797189999        9.5088886468       -6.1542733452
 Na       -9.3067935595        3.3561756209        0.2504979615
