117

 C       -11.0652426222        9.1073936499       -6.9678238810
 C       -10.5843841915        7.6985825563       -6.8697286945
 O       -11.0819690641        6.7790026680       -7.4946932348
 C        -9.3565978750        7.4054167890       -5.8410918577
 C        -9.9666935819        6.6200914000       -4.7025904581
 O       -10.3663127868        7.2033155546       -3.6966647272
 C       -10.2691433325        5.0651132745       -4.9628027264
 C       -10.6738002911        4.3306058561       -3.7130494787
 C       -10.9911870180        2.8588760019       -4.0729354092
 O       -10.4405297253        2.2448940535       -4.9212403083
 C       -12.1691141994        2.2134012274       -3.1949776459
 C       -11.9140234741        2.6906231979       -1.6960897275
 O       -10.7724267160        2.4966523865       -1.3198320131
 C       -12.9589389795        3.3415596644       -0.7375051008
 C       -13.0303861230        2.3445511437        0.4302269465
 C       -12.8316830706        3.0313921937        1.8113959050
 O       -12.4132577372        4.1692677622        1.9162017031
 C       -13.4451398952        2.3448604364        3.0924534652
 C       -12.6727462636        0.9457951816        3.3484222354
 O       -13.1075099119       -0.1768152251        2.9698097673
 C       -11.4495161373        1.0830942821        4.2072290134
 C       -10.1280242112        0.2878352658        3.7406162028
 C        -9.6800142512        0.7123517261        2.3648476754
 O       -10.2230737158        1.6905049043        1.8447823366
 C        -8.6786551591       -0.1686961690        1.4971906203
 C        -7.4022106181        0.7989988592        1.3284771458
 O        -7.6382010073        1.8741039944        0.8871679036
 C        -6.0003310796        0.4793764066        1.7590556032
 C        -5.3198019320        1.7576520508        2.2815035285
 C        -6.0729005089        2.4646831689        3.3957744764
 O        -6.9639967084        1.9214617584        4.0130339138
 C        -5.6084113087        3.9422484386        3.8385535872
 C        -6.0526272920        5.0380269633        2.7669806813
 O        -5.6442609148        4.9807437236        1.6444549649
 C        -6.8036666558        6.2511705567        3.3312740300
 C        -7.4897853198        6.9982348376        2.0779994880
 C        -8.5246678037        6.0676952455        1.3621893472
 O        -8.5958523829        4.9442227246        1.7611869794
 C        -9.2568934285        6.4840392463        0.0411732880
 C        -8.3951069308        5.8690206155       -1.1245823295
 O        -8.4614887307        4.7099877963       -1.3641283407
 C        -7.4978244965        6.7255395447       -1.9565902026
 C       -10.6509101378        5.7779297091       -0.0263878816
 C        -9.4021385536        8.0132845004       -0.0216682246
 C        -6.1800317676        4.1784611164        5.3207198040
 C        -4.0784181953        4.0304023359        3.9929200027
 C        -8.2364096373       -1.5049910770        2.1403079064
 C        -9.3360963383       -0.3282771953        0.0760750020
 C       -13.3394313063        3.2017708310        4.3476650890
 C       -14.8843854624        2.1079223494        2.8156275187
 C       -13.4815359489        2.6780015450       -3.9472313756
 C       -12.0476799351        0.6378314256       -3.1449115450
 C        -8.3543754045        6.6303417390       -6.5954310752
 C        -8.6541324752        8.6600948845       -5.2909201942
 H       -11.8693418634        9.2542141000       -6.2086283369
 H       -11.5593771047        9.3192862413       -7.9083445658
 H       -10.3140086547        9.9014799574       -6.8816227255
 H        -9.4054246012        4.5177518899       -5.4689077734
 H       -11.1439695777        5.0857425681       -5.6112671036
 H       -11.5470545357        4.6973135392       -3.2107207924
 H        -9.8363228945        4.2949700247       -2.9542230280
 H       -13.8893873157        3.5624454932       -1.2590092375
 H       -12.5907616690        4.2443658758       -0.3636424922
 H       -12.2430868997        1.5462206329        0.2894728315
 H       -13.9367521936        1.7374657305        0.4705301769
 H       -11.7308565734        0.7273632344        5.1951178101
 H       -11.1972851473        2.1664220031        4.3055216013
 H       -10.3993733460       -0.7780665929        3.5969733212
 H        -9.4187394923        0.3208957094        4.5613639163
 H        -5.3809725270        0.2235346320        0.9365118477
 H        -5.9856297160       -0.3892234601        2.4020321650
 H        -5.0855587765        2.3983158329        1.3881782934
 H        -4.3476724351        1.4829972696        2.7273184681
 H        -6.1860224083        6.9582096381        3.8836927675
 H        -7.5423131601        5.9885223688        4.0838837303
 H        -6.7703844913        7.1876224748        1.3055272192
 H        -7.9707147700        7.9327171837        2.3998998742
 H        -8.0043756388        7.5693566288       -2.4004047950
 H        -7.0853625375        6.0705995854       -2.7038330453
 H        -6.6293329452        7.1284892730       -1.3460120880
 H       -10.4966001269        4.6906715685       -0.0027680177
 H       -11.1168039556        6.0009638049       -1.0107344398
 H       -11.3356971335        5.8529976522        0.8518032160
 H        -9.9405814139        8.4296203419       -0.8209266747
 H        -8.3938124744        8.4272687204       -0.0719677632
 H        -9.9913988485        8.3821732694        0.8017590804
 H        -7.1950100716        3.9280190288        5.3301894281
 H        -6.0062948350        5.2539514919        5.4943170507
 H        -5.6652077571        3.5159691824        6.0099879433
 H        -3.6796679805        4.9431357226        4.4314502792
 H        -3.6169427271        3.9453350891        3.0090477879
 H        -3.7723129018        3.1764050108        4.5828805957
 H        -7.9219337967       -1.3664930550        3.1141653349
 H        -7.3381898015       -1.8864101068        1.5979345764
 H        -9.0907275862       -2.2055855285        2.1414329717
 H        -8.6300735909       -0.3051849965       -0.7080794096
 H       -10.0843316284        0.4773821167       -0.0897331872
 H        -9.9109507228       -1.2579085842       -0.0160977130
 H       -13.3842955744        2.5701752476        5.1790189796
 H       -14.0850247004        3.9443487479        4.4103692136
 H       -12.3486911053        3.7268971804        4.4149600186
 H       -15.4779562347        1.8351327047        3.6546444110
 H       -15.1431073460        1.5558922614        1.8668126130
 H       -15.2516091743        3.1387324676        2.5257676691
 H       -13.2884752975        2.1990453043       -4.9463915575
 H       -13.4575156597        3.7681062310       -4.1178380968
 H       -14.4518717053        2.4853334450       -3.4914178626
 H       -11.2702732927        0.3422652696       -2.4161195947
 H       -11.9831075179        0.1453871602       -4.1361298120
 H       -12.9960295188        0.3715703852       -2.7189582938
 H        -8.8787574052        6.0207955411       -7.3324692458
 H        -7.7821713439        5.9617223994       -5.9700879200
 H        -7.6812990958        7.2933002859       -7.1871484714
 H        -7.6226532097        8.3666667806       -5.0873232360
 H        -9.2065642767        9.0725687357       -4.4592733102
 H        -8.6841501838        9.3440951667       -6.1314263558
 Na       -9.3899298326        3.2557055470        0.3370576151
