117

 C       -11.2089046092        9.0476070151       -6.9498657596
 C       -10.7112386704        7.6105381882       -6.9785976379
 O       -11.3714932719        6.6191572315       -7.2903856025
 C        -9.3048491055        7.3329585108       -6.3096744823
 C        -9.6328026865        6.4685142672       -5.0357526454
 O        -9.9603755124        7.0304395107       -3.9788441725
 C        -9.7817727065        4.9550976522       -5.0973078636
 C       -10.7518301070        4.4985226558       -4.0397837781
 C       -11.1752459605        2.9706965480       -4.1976247696
 O       -10.7877731795        2.2680693540       -5.1205945155
 C       -12.2679228734        2.3391476394       -3.1932149326
 C       -11.9394863952        2.5780048456       -1.6622275024
 O       -10.7848058494        2.3665227542       -1.3164747263
 C       -13.0117355284        3.0156605873       -0.6270343531
 C       -13.1370726288        2.1475487517        0.6191850481
 C       -12.8714614254        2.9452762093        1.8803977801
 O       -12.1847888090        3.9578717676        1.7859337734
 C       -13.4578951145        2.4856450145        3.3106136243
 C       -12.6270571145        1.1424569784        3.4745471864
 O       -12.8014784784        0.3151061815        2.5571754144
 C       -11.4548815042        0.7954354403        4.3971820460
 C       -10.3295582759        0.0773948830        3.6918413590
 C        -9.8101574407        0.7500114069        2.4778885905
 O       -10.1958348034        1.8738407039        2.1717537277
 C        -8.6820403537        0.0118142161        1.6731209341
 C        -7.3840421881        0.8533440947        1.7174831153
 O        -7.2959308351        1.8935290135        1.1067405317
 C        -6.0687342628        0.4011077538        2.3470502660
 C        -5.3142392389        1.6189669969        2.7502804945
 C        -6.2201385738        2.5215878479        3.6166732285
 O        -7.3918650218        2.2474864355        3.8600801494
 C        -5.6430993129        3.9279956488        4.0289031265
 C        -6.0688753088        4.8890469813        2.8371994825
 O        -5.8658664864        4.5525405594        1.6604669355
 C        -6.6540080129        6.2463325402        3.1448583329
 C        -7.3204837400        6.9571695693        1.9686344927
 C        -8.4652744441        6.0682789611        1.2916263484
 O        -8.7311268278        5.0023240743        1.8353267907
 C        -9.1006963341        6.5656176853       -0.0574882414
 C        -8.4242184445        5.6794855115       -1.1479580684
 O        -8.4813436981        4.4770510951       -0.9992642534
 C        -7.6106722711        6.2016087734       -2.2777608886
 C       -10.6281480359        6.3894481487       -0.0113320338
 C        -8.6941138724        8.0222260124       -0.2425414900
 C        -6.2776279660        4.2930489915        5.3939485811
 C        -4.0880417906        4.0511010246        4.1111250310
 C        -8.3930451811       -1.4378318644        2.1565333071
 C        -9.1865689787        0.0548525042        0.1620766515
 C       -13.2484074859        3.6475947483        4.3667860614
 C       -14.9717467202        2.1396421433        3.3040614792
 C       -13.5952692298        2.9165591683       -3.6784154157
 C       -12.3041897615        0.8676031314       -3.4759610327
 C        -8.4141946691        6.5733706473       -7.4724952497
 C        -8.6136593666        8.6671937979       -5.9919213510
 H       -11.2070149329        9.3719518597       -5.9374268784
 H       -12.2707633990        9.1129769834       -7.2297060775
 H       -10.7086856495        9.7576762122       -7.6012072184
 H        -8.7972065316        4.4641482110       -5.0312400260
 H       -10.2349533739        4.7318729242       -6.0097448738
 H       -11.6958962093        5.0380517227       -3.9856227870
 H       -10.2801012001        4.5409753334       -3.0037757195
 H       -13.9787027329        3.1671153103       -1.1463075866
 H       -12.6883291993        3.9873897047       -0.3340008508
 H       -12.5018787238        1.2410703480        0.6780519666
 H       -14.0414334008        1.5837677680        0.7406673006
 H       -11.8052655399        0.2164233589        5.2107666316
 H       -11.0270200441        1.7628039833        4.6982748567
 H       -10.7382532999       -0.9371355991        3.4495391138
 H        -9.4838956586       -0.0716616948        4.3626813287
 H        -5.5876347486       -0.1688406851        1.5665735985
 H        -6.1638763986       -0.2752809192        3.1836786514
 H        -5.1579598332        2.2853383297        1.8422511671
 H        -4.3759859535        1.4083122566        3.2778735235
 H        -5.8967161944        6.8379375558        3.6251175549
 H        -7.3748258569        6.0754481864        3.9329778873
 H        -6.5496076975        7.0879335426        1.2094844357
 H        -7.8358892559        7.9445319988        2.2010097025
 H        -8.1397723104        6.9434772846       -2.8793722637
 H        -7.2370025625        5.4228991163       -2.9612873327
 H        -6.6604908829        6.6500007162       -1.8679712467
 H       -10.9919725627        5.4214218112        0.2004567348
 H       -11.0184389586        6.7535409736       -0.9012608620
 H       -11.0486681431        6.9185455866        0.7873899595
 H        -9.1044393501        8.5174354017       -1.0956077978
 H        -7.5667416293        8.1685053589       -0.3656596828
 H        -9.1129448775        8.5604299371        0.6461584398
 H        -7.3504762746        4.1659377696        5.1984194013
 H        -6.0410173217        5.3786677785        5.6319978045
 H        -5.8121502178        3.5475599186        6.0557511593
 H        -3.8100474948        5.0731153100        4.4545873931
 H        -3.5901581524        3.6372479249        3.2430505829
 H        -3.7216831965        3.3765721606        4.8730618972
 H        -7.8491583068       -1.4687854119        3.0896847162
 H        -7.8007697837       -1.9192516555        1.4358908187
 H        -9.3468753094       -2.0403696893        2.1240969024
 H        -8.8471089456       -0.7766919110       -0.3881257374
 H        -8.7392006560        0.9010846734       -0.3575823927
 H       -10.2665925539        0.1114489716        0.0777909473
 H       -13.6450176630        3.1605390430        5.2269990205
 H       -13.7306643996        4.5669101973        4.2540637672
 H       -12.1886781708        3.7762655694        4.6078913597
 H       -15.3149215308        1.8878249376        4.2624277020
 H       -15.2457508478        1.3770679762        2.5472192852
 H       -15.5289049255        3.0687336619        3.0777741095
 H       -13.4753525704        3.1086770402       -4.7854546629
 H       -13.7302472793        3.8527658060       -3.1872325754
 H       -14.4835579562        2.3508020272       -3.5579583386
 H       -11.3061640137        0.4328073260       -3.3221076501
 H       -12.6990553719        0.6422700409       -4.4817458800
 H       -12.9656790514        0.4796492319       -2.7320669266
 H        -8.8320284922        5.6544555907       -7.8433611521
 H        -7.4048095452        6.3906889659       -7.1519406547
 H        -8.3128804889        7.2286695601       -8.3365801090
 H        -7.6729778419        8.4521866425       -5.4658323967
 H        -9.2978721698        9.3365549376       -5.3955876233
 H        -8.4380712266        9.0250415505       -6.9747239767
 Na       -9.3594192936        3.1133802154        0.5427125109
