117

 C       -11.4726389982        8.8167364375       -7.0853047872
 C       -10.9767113556        7.3867097216       -7.2304718605
 O       -11.7632231974        6.5010374009       -7.4499129940
 C        -9.5170351384        7.0208645032       -6.8163976085
 C        -9.6140105027        6.3647655668       -5.3583369160
 O        -9.1312694798        6.8613803256       -4.3466017940
 C       -10.2559829126        4.9521698310       -5.3592881295
 C       -10.7872903517        4.5197911666       -4.0412925787
 C       -11.3339448065        3.0839770709       -4.2615608455
 O       -10.7453335516        2.3807196079       -5.0236796275
 C       -12.5185059163        2.5327071031       -3.4018616394
 C       -12.0523842063        2.7110747154       -1.8494350439
 O       -10.8637935066        2.6555094743       -1.6605043461
 C       -13.0278912675        3.1365363748       -0.6857183758
 C       -12.8206780297        2.2609511394        0.4959464004
 C       -12.5174491348        3.0820448750        1.8440171910
 O       -11.9965748964        4.1648498752        1.7389096110
 C       -13.0235415945        2.5309189022        3.2560665136
 C       -12.4349774334        1.0810821905        3.5097206105
 O       -12.7591965131        0.1836774497        2.8057071596
 C       -11.4138151014        0.6699721394        4.7354811593
 C       -10.3000999702       -0.1728453450        3.9785196908
 C        -9.8541974534        0.5370798736        2.7492553091
 O       -10.2701299856        1.6086205880        2.4011636361
 C        -8.8336351754       -0.2105162869        1.7769502412
 C        -7.5839208408        0.8574933408        1.7514742370
 O        -7.6920698236        1.8617317097        1.0692270259
 C        -6.4680584896        0.5477213488        2.6915947119
 C        -5.6297673972        1.8082250812        3.0220837999
 C        -6.3073007280        2.6622753935        4.1207260133
 O        -7.2521366398        2.2874531990        4.7528029183
 C        -5.6532835672        4.0643655157        4.3700028558
 C        -5.9281297709        4.8997269288        3.1160313422
 O        -5.3204392049        4.6105691356        2.1333181234
 C        -6.8846611982        6.0828766292        3.3247281394
 C        -7.1239316469        6.8356721430        2.0136164529
 C        -8.2954808654        6.2044174426        1.2022766335
 O        -8.8662007653        5.2477375500        1.6299579447
 C        -8.6840295475        6.7010727818       -0.2379833621
 C        -8.1705874500        5.5499344123       -1.2723137394
 O        -8.7113881546        4.4821259894       -1.3249764985
 C        -6.9533527564        5.8819163405       -2.1560740836
 C       -10.1963348559        6.8825505368       -0.4499995047
 C        -8.1169720706        8.0829540489       -0.5888621118
 C        -6.2464222371        4.5520891968        5.7711275747
 C        -4.1096975855        3.8417833783        4.4961362014
 C        -8.5634715320       -1.6923564521        2.3317878328
 C        -9.5200685298       -0.3300335582        0.4452184060
 C       -12.6602034800        3.6536743449        4.2479802356
 C       -14.5950923271        2.3074396491        3.1528159072
 C       -13.8017813109        3.3623700962       -3.6710525599
 C       -12.6799599927        1.0239522048       -3.7617823410
 C        -8.9400295929        6.1083845114       -7.8174918678
 C        -8.6100556267        8.3206863613       -6.6296479853
 H       -11.1327221405        9.2544722583       -6.1490759979
 H       -12.5375274515        8.7819801344       -7.0992363060
 H       -11.1318396360        9.5191321339       -7.8425891232
 H        -9.5519689185        4.2679765856       -5.7870576973
 H       -11.1074798466        5.0136891610       -6.0550282973
 H       -11.6091610312        5.2565220704       -3.7607334135
 H       -10.0221923128        4.4829261616       -3.2775652317
 H       -14.0188910904        2.9634133789       -1.1268427571
 H       -12.9169865870        4.1994321124       -0.5563774318
 H       -12.1080080954        1.4305830210        0.3892966428
 H       -13.6847645373        1.6258718834        0.7340288205
 H       -11.9500433758        0.0146467004        5.4189638690
 H       -10.9080108936        1.4539688395        5.2651587041
 H       -10.7170666436       -1.1563365368        3.6486758479
 H        -9.4839912981       -0.3558153142        4.6720784395
 H        -5.8320902462       -0.2735915101        2.3338306744
 H        -6.9055522044        0.1980972446        3.5948563502
 H        -5.4442858825        2.4965446591        2.1602323843
 H        -4.7059349904        1.4022049402        3.4736985706
 H        -6.4402386205        6.8408184558        3.9559414641
 H        -7.8154998973        5.7854757500        3.7541912310
 H        -6.2807889576        6.8704084269        1.3112076372
 H        -7.3551065717        7.8927996527        2.2989168705
 H        -7.0205894422        6.9311942463       -2.5266541646
 H        -6.8005212356        5.2858797046       -3.0831078048
 H        -6.0378890811        5.7113823459       -1.6149757229
 H       -10.7079267636        5.9712484829       -0.4308069709
 H       -10.3597648379        7.2639370710       -1.4180505082
 H       -10.6292571801        7.6060345062        0.1777175656
 H        -8.5198420040        8.4060108938       -1.5899282335
 H        -7.0358931053        8.1428218840       -0.5476845696
 H        -8.3522433770        8.7847184344        0.2106125468
 H        -7.3531688030        4.6786635505        5.5879156904
 H        -5.6679544942        5.4440282149        5.9942417722
 H        -5.9942161825        3.7949492911        6.5539660643
 H        -3.5987282403        4.8158778213        4.6722615708
 H        -3.6995611763        3.4039853025        3.5484691281
 H        -3.8884071522        3.1596386662        5.3419630091
 H        -8.2029159944       -1.7209782620        3.3891591944
 H        -7.8365769160       -2.2393304024        1.6987818037
 H        -9.4533654213       -2.2595060553        2.2910707715
 H        -8.7869033029       -0.4082944243       -0.3910425316
 H       -10.0427984810        0.5789336304        0.2423217261
 H       -10.1974403232       -1.1648597715        0.3968664220
 H       -12.4800928999        3.1562640081        5.2011236500
 H       -13.4627951260        4.3864683187        4.3291759831
 H       -11.7752468516        4.1276033652        3.9472843852
 H       -15.1459145247        2.3207164358        4.1177237495
 H       -14.8260919729        1.3755245950        2.7186130663
 H       -14.9252347150        3.1309268875        2.5601493662
 H       -13.9037665254        3.4730756592       -4.7019793898
 H       -13.7546638038        4.3703206525       -3.3169169981
 H       -14.6861974382        2.8249382563       -3.4002138398
 H       -11.7852809828        0.4999480417       -3.4484736221
 H       -12.8157642721        0.8130070989       -4.8177326826
 H       -13.5326394243        0.6582912513       -3.1462344748
 H        -9.5945726802        5.2459969033       -7.9097703957
 H        -7.9707548916        5.7251963176       -7.4547480315
 H        -8.8009288364        6.5130059322       -8.7829723790
 H        -7.5573691565        8.0377457948       -6.5953403750
 H        -8.8991066744        8.8445197205       -5.7063923874
 H        -8.7811864974        8.8442569131       -7.5846219240
 Na       -9.8947664308        3.4724895739        0.5813781859
