117

 C       -11.9925168298        6.2262882554       -9.6999759176
 C       -12.0876106279        5.8299834651       -8.2116949142
 O       -11.9030380290        4.7254692405       -7.8312996683
 C       -12.6610076597        6.8736211056       -7.2591403850
 C       -11.4794372420        7.2137738258       -6.2677300855
 O       -11.6049889710        7.0781829351       -5.0535903203
 C       -10.1641902796        7.6865865577       -6.7970328629
 C        -9.1226240730        7.8107123983       -5.6652853093
 C        -9.1893949448        6.4728975685       -4.9173175317
 O        -9.2733624356        5.4471923947       -5.5435374132
 C        -9.1820009071        6.2699826466       -3.2363713063
 C       -10.3993975878        5.3624906873       -2.8821835030
 O       -11.1193649831        5.6265603595       -1.8533871566
 C       -10.6510986687        4.1281866307       -3.6985678199
 C       -11.7212876797        3.2009047377       -2.8927028543
 C       -11.3873641668        2.9774697893       -1.3872125182
 O       -10.2975057653        3.1833124524       -0.9464675076
 C       -12.4573330119        2.3073793135       -0.4219136009
 C       -12.2268420868        3.0640011442        0.9491377420
 O       -11.7299276921        2.5075629370        1.8591551640
 C       -12.4465410928        4.5562461006        0.9322685569
 C       -12.4006959559        5.1859937651        2.3476611069
 C       -10.8786094037        5.1158749738        2.7382478745
 O       -10.0268243630        4.9603995917        1.8515052432
 C       -10.3304257078        5.3653401553        4.1637107546
 C        -9.6872960663        3.9687903147        4.6404954931
 O        -9.3575175842        3.1765971712        3.7403731255
 C        -9.5800877074        3.6935795502        6.0818069326
 C        -8.3555314005        2.8089382232        6.5543782174
 C        -8.7020669924        1.3478228233        6.8187064971
 O        -9.8554977410        0.9885790237        6.8664854538
 C        -7.4980208621        0.2871335836        6.6933766758
 C        -7.2652961997        0.3781982368        5.0246929247
 O        -6.2897284817        1.0259255201        4.6382427852
 C        -8.3219879527       -0.0555997568        3.9532065065
 C        -7.4974318311       -0.5113612745        2.7967089907
 C        -7.7803508277        0.1815531629        1.4433450975
 O        -8.9031309721        0.5638505251        1.0715257070
 C        -6.5760069690        0.5707270370        0.4824444312
 C        -6.0958238886        1.9637297504        1.0407367067
 O        -6.8867923590        2.8639134800        0.9699777464
 C        -4.7167055778        2.2881805625        1.6121473602
 C        -5.4530733133       -0.4998277654        0.3956204349
 C        -7.2718493037        0.7883966352       -0.8548595148
 C        -6.1038699900        0.6657961041        7.3493184203
 C        -8.0615349006       -1.0198134008        7.2596158009
 C        -9.2499751202        6.4281351572        4.0991817220
 C       -11.4337411293        5.6259786000        5.1853238062
 C       -13.8781405800        2.3874375577       -1.0573663615
 C       -12.0839455325        0.8677940650       -0.2593208315
 C        -7.9628994598        5.3884902391       -3.0001200710
 C        -9.3570979014        7.4907662618       -2.3305079799
 C       -13.1034152139        8.1614639853       -7.9749879917
 C       -13.8730582184        6.1928061382       -6.5780596456
 H       -11.7843728810        5.4216536346      -10.3154018144
 H       -11.2351052410        6.9447174410       -9.9576638423
 H       -12.8906183742        6.6184569313      -10.0661341923
 H       -10.3455743107        8.6237130077       -7.3826885892
 H        -9.8517568023        7.0399270667       -7.5649256277
 H        -9.1781418758        8.6841302000       -4.8960378558
 H        -8.1472309564        7.8707139438       -6.1339030829
 H        -9.7168805897        3.5513942318       -3.7410837132
 H       -10.9953290064        4.4506632512       -4.6583422135
 H       -11.8754832138        2.2059818488       -3.2889647508
 H       -12.6760449306        3.6655139339       -2.9948612920
 H       -13.3784548549        4.8426627401        0.4411911761
 H       -11.6325993565        4.8331444008        0.2674966424
 H       -13.0426209272        4.7781702669        3.1462272766
 H       -12.9694724984        6.1101756827        2.2373503118
 H       -10.5050431488        3.1170253056        6.4613071270
 H        -9.7758292216        4.6166104017        6.6820831430
 H        -7.9249468378        3.3497022980        7.3778422986
 H        -7.6055497939        2.7197738989        5.7359812682
 H        -8.9894727247        0.8153724046        3.7132980545
 H        -9.0375174172       -0.8192381777        4.3452063000
 H        -7.6754102296       -1.5491702930        2.6221438501
 H        -6.4612049518       -0.3732646788        3.1285327763
 H        -4.1329433755        1.3077970373        1.7144754011
 H        -4.7465978766        2.9001734815        2.4440256905
 H        -4.0887879377        2.7606569874        0.8256471994
 H        -5.8500128951       -1.3238554084       -0.2332184243
 H        -5.2606075445       -0.9456929083        1.4604340708
 H        -4.5759327596       -0.0786025724        0.0345665606
 H        -7.5792358727       -0.1809299745       -1.2355214081
 H        -6.6229114120        1.1505991278       -1.7369623142
 H        -8.1062984151        1.4670602169       -0.8052189967
 H        -5.3201528816        1.1220379855        6.7007708702
 H        -5.6756225182       -0.2086762382        7.7463434072
 H        -6.3547258769        1.2019866933        8.3021272703
 H        -8.8379214479       -0.8167231275        7.9815106695
 H        -7.2957523717       -1.5721845271        7.7304937671
 H        -8.4854612657       -1.6504837761        6.5336494586
 H        -9.7155760642        7.3061895741        3.7241087815
 H        -8.3894129359        6.1189887371        3.5003496221
 H        -8.8514862819        6.6956865613        5.0905002547
 H       -11.0966058737        6.2501980094        5.9660700604
 H       -11.9423070305        4.8027574861        5.6025884143
 H       -12.2002650821        6.1417937254        4.5762355201
 H       -14.6325408777        2.0509429552       -0.3486682651
 H       -13.8422971234        1.6467701644       -1.8885590587
 H       -14.1090874663        3.3658903269       -1.2723126567
 H       -12.7492254508        0.3412555968        0.4754249588
 H       -11.0216018554        0.7112645527       -0.0115465249
 H       -12.2685732600        0.3169531503       -1.1958327400
 H        -7.0775962855        5.8666991430       -3.4640968134
 H        -7.9407020751        4.4408469652       -3.4921907457
 H        -7.7195900285        5.2511029880       -1.9394689687
 H        -8.4404115014        8.0543131781       -2.2670082907
 H        -9.7101501406        7.3083023505       -1.3400738203
 H       -10.1611023501        8.1775421324       -2.6516787724
 H       -12.3188623223        8.7447946775       -8.4121315294
 H       -13.6507638018        8.7937036438       -7.2563110180
 H       -13.8771873269        8.1196924739       -8.7382281150
 H       -14.4197563474        5.5268576176       -7.2305500301
 H       -14.4670248030        7.0097225589       -6.2082569241
 H       -13.5580391728        5.6279411726       -5.6471978389
 Na       -9.3553509447        2.7614878489        1.3532304351
