117

 C       -11.3527746232        8.8906592143       -7.1656469532
 C       -11.2036181402        7.4159144584       -7.3270637639
 O       -12.1633311417        6.7057363800       -7.6858994580
 C        -9.8369348655        6.6227106053       -7.3263564674
 C        -9.8265796269        5.9053801622       -5.9163411868
 O        -9.1627684288        6.1521578598       -4.9364195716
 C       -10.6690065174        4.6303470698       -5.8090335989
 C       -10.6550568803        4.1851784263       -4.3597395787
 C       -11.4355293479        2.8698702855       -4.2530803486
 O       -10.9086265158        1.8161861083       -4.5772641848
 C       -12.6601350350        2.8098781343       -3.3004458841
 C       -12.2961694101        2.8088767488       -1.7827351231
 O       -11.1355481932        2.6978496304       -1.4934057089
 C       -13.4167172190        3.0889572001       -0.7099094581
 C       -13.3198759965        2.3349634446        0.6199455676
 C       -12.8247826491        3.1568002051        1.8004283613
 O       -11.9158380316        3.9842045420        1.7002909730
 C       -13.3841887039        2.8618833511        3.3053765500
 C       -13.0713529939        1.3854536414        3.7074324677
 O       -13.9035029947        0.4737153408        3.5071295519
 C       -11.5972521615        1.0088685192        4.2304268350
 C       -10.7948656776       -0.0513802733        3.4937112343
 C        -9.9910890099        0.5991920600        2.3324060644
 O       -10.4162562332        1.5936233572        1.8080897178
 C        -8.6119690627       -0.0995687820        1.8358998333
 C        -7.5273728186        1.0724890623        1.8136743222
 O        -7.8150743561        2.0171828970        1.0781322938
 C        -6.2171062952        0.9890773651        2.6935936252
 C        -5.5074030711        2.2586182186        3.0951709440
 C        -6.0250946258        2.8221223703        4.4283215147
 O        -6.7725758826        2.1266643989        5.1285699171
 C        -5.6031796847        4.2450114684        4.8621352880
 C        -5.8108754907        5.1802057375        3.6989147767
 O        -4.8874194522        5.3705770865        2.9067521618
 C        -7.1425537065        6.0957008619        3.6144220093
 C        -7.2278879487        6.8224307872        2.2439361259
 C        -7.7604397710        5.8564312183        1.1816548725
 O        -8.2189694145        4.7733249881        1.5607707117
 C        -7.8397805057        6.3463187809       -0.2901299816
 C        -7.5744261986        5.1452129525       -1.2775434416
 O        -8.1380318601        4.0658829285       -1.1687614193
 C        -6.6891622482        5.3363425835       -2.5567523080
 C        -9.3163562129        6.8380743431       -0.5352722090
 C        -6.8344779935        7.5243093553       -0.5258988307
 C        -6.4624032466        4.5599140619        6.1092235701
 C        -4.0166345484        4.1326325330        5.0941544687
 C        -8.3215588479       -1.2719303242        2.8544312242
 C        -8.7964266117       -0.7375002983        0.4508529413
 C       -12.6955441342        3.9214783831        4.1730441451
 C       -14.8761038276        3.2803027988        3.3255627284
 C       -13.5413061830        4.0528394190       -3.5960456724
 C       -13.4643940900        1.5552097288       -3.6201524471
 C        -9.7341715812        5.7173778315       -8.5293861795
 C        -8.6439628972        7.5855888488       -7.2945829441
 H       -10.6506807117        9.3823075191       -6.3991517047
 H       -12.3731774784        9.0665104362       -6.8252798763
 H       -11.2371352638        9.4208770052       -8.1152750124
 H       -10.1830814707        3.8911800282       -6.3545927703
 H       -11.6262782214        4.7266001915       -6.3138999264
 H       -11.0330010543        5.0353913015       -3.7138734048
 H        -9.6682710974        4.0007070896       -4.0104382387
 H       -14.3260567797        2.7237297611       -1.2526393498
 H       -13.4748904349        4.2155427988       -0.6340882567
 H       -12.7000369976        1.4180660141        0.5495146888
 H       -14.3646630911        2.1574913377        0.9871183139
 H       -11.7394987973        0.7184624408        5.2794202771
 H       -10.9622695481        1.8541674993        4.3757071736
 H       -11.4393833405       -0.8508482886        3.1002987352
 H       -10.1696550632       -0.5633948832        4.2440329338
 H        -5.5030648151        0.3204493074        2.1162656481
 H        -6.4578106360        0.4569700310        3.6276946550
 H        -5.6783612244        3.0479731065        2.3799833431
 H        -4.4190031897        2.1310523875        3.0725437246
 H        -7.1414198511        6.8732418774        4.4211527230
 H        -8.0253446414        5.4671972739        3.7210986157
 H        -6.2414040205        7.2352705901        1.8990205553
 H        -7.9222659123        7.6845235837        2.3399051122
 H        -6.6570197877        4.4770789266       -3.1658563710
 H        -5.6435133595        5.4844808038       -2.3658792342
 H        -7.1201665167        6.1526031522       -3.1673679054
 H       -10.0299056218        5.9398970277       -0.4925650222
 H        -9.3436338900        7.2115376350       -1.6140164799
 H        -9.7300763713        7.5649128459        0.2603810442
 H        -6.7546224862        7.7591914397       -1.6030309358
 H        -5.8841425272        7.2367134614       -0.2270573493
 H        -7.2624030312        8.3566715193       -0.0250846636
 H        -7.4720634079        4.4892964251        5.8138263398
 H        -6.3234456943        5.5772224425        6.4524485174
 H        -6.1935377675        3.8029147375        6.8539137351
 H        -3.6152275510        5.0371923558        5.4261726177
 H        -3.5696524436        3.9208837458        4.1302477755
 H        -3.7797952954        3.3958015111        5.8813408314
 H        -8.2061055430       -0.9991850693        3.8763185937
 H        -7.2823360804       -1.6878043877        2.5896059653
 H        -8.9681169945       -2.1067953966        2.6907417456
 H        -7.8211948688       -0.8488451321       -0.0197914962
 H        -9.4729185343       -0.1895402211       -0.1922518238
 H        -9.1944136057       -1.7318194668        0.5551175386
 H       -13.0913968985        3.7627738960        5.1479773928
 H       -12.9963073941        4.9392899452        3.8689723183
 H       -11.5546976187        3.8114707468        4.1240028391
 H       -15.0939832323        3.9000301163        4.2241145361
 H       -15.5268835346        2.4441963645        3.0861244953
 H       -14.9581040896        3.9480829692        2.4594776278
 H       -13.4738706841        4.2532101029       -4.6518566334
 H       -13.3629983511        4.9801131005       -3.0094959311
 H       -14.6342538441        3.9410926764       -3.3228261791
 H       -12.8788225195        0.6428649692       -3.4962552124
 H       -13.8770248325        1.5075643412       -4.6164080464
 H       -14.3348537928        1.4936616605       -2.9250071989
 H       -10.5245356588        4.9696013727       -8.6125144533
 H        -8.7785888268        5.1782216812       -8.5477969730
 H        -9.7335546223        6.3168029928       -9.4424306858
 H        -7.7527736970        7.0238787040       -7.0471808691
 H        -8.7772546635        8.3650541710       -6.6295792130
 H        -8.5022364822        8.0683461049       -8.3068140427
 Na       -9.8420690052        3.3805207685        0.4543473708
