117

 C       -11.3448076093        8.8186653804       -7.1296976656
 C       -11.2658216332        7.3272417944       -7.4220184520
 O       -12.2513786073        6.6556756360       -7.5159393607
 C        -9.7953767577        6.5901681459       -7.3540983212
 C        -9.7672370888        5.8458088186       -6.0018434863
 O        -9.1562939228        6.3066120350       -5.0146041031
 C       -10.7710741181        4.6074919375       -5.9312150658
 C       -10.7024100882        4.0857031630       -4.5287453196
 C       -11.3792897349        2.7565045832       -4.1702215398
 O       -10.9656011854        1.7245809262       -4.5785919998
 C       -12.7715514811        2.8428578365       -3.3851934583
 C       -12.3181613406        2.8443354270       -1.8221093653
 O       -11.1433963185        2.7688723284       -1.4571675974
 C       -13.4862802748        3.0770961953       -0.7649110013
 C       -13.3834850632        2.3639898550        0.6009502230
 C       -12.8047551389        3.2472406283        1.8811869310
 O       -11.8911668764        3.9684660279        1.6740613415
 C       -13.3742084586        3.0335213296        3.2929709277
 C       -13.0628559470        1.4489603143        3.6375314247
 O       -13.9208845752        0.6201462359        3.5305817814
 C       -11.6819524921        1.0244342995        4.1838689131
 C       -10.8975788839        0.0127370198        3.3608274311
 C        -9.9820161613        0.5671398842        2.2941222392
 O       -10.3413834433        1.6053179353        1.7633921054
 C        -8.5824995144       -0.0737653875        1.8429603429
 C        -7.5168894372        1.1186348801        1.8520416263
 O        -7.6831631858        2.1480330342        1.3072473650
 C        -6.2392625297        0.9096165775        2.6304660284
 C        -5.5793669654        2.2596026464        3.0040470155
 C        -6.1271073590        2.8238390319        4.3825403698
 O        -6.8369517862        2.1707649468        5.1023661221
 C        -5.6226458586        4.2293817518        4.8609910210
 C        -5.7148669921        5.2683426757        3.7726987297
 O        -4.8860433117        5.3934074708        2.8699154378
 C        -7.0447228407        6.0540070363        3.6615574963
 C        -7.1730678237        6.7788590681        2.3126189599
 C        -7.7366579010        5.8212026132        1.2141399871
 O        -8.2268897735        4.7507370428        1.4918740027
 C        -7.7887659593        6.2829506530       -0.3034046817
 C        -7.5949491164        5.0449047810       -1.2396313126
 O        -8.0763564233        3.9617454779       -1.0296261312
 C        -6.7212315678        5.3327953744       -2.4739241530
 C        -9.2102794972        6.7578151909       -0.4483111603
 C        -6.6680464607        7.3647762572       -0.5586417061
 C        -6.4076666468        4.6208869555        6.1610082643
 C        -4.0960385375        4.1961168034        5.2657574827
 C        -8.0865390587       -1.1426093154        2.8912341120
 C        -8.7134757069       -0.8501879998        0.5010954156
 C       -12.6461917875        4.1165909742        4.2505855762
 C       -14.9440775002        3.2462840776        3.3411842597
 C       -13.6399574789        4.1661729502       -3.6595534907
 C       -13.6154122206        1.5996703267       -3.7461956636
 C        -9.9039284838        5.6074709844       -8.4890361825
 C        -8.4506980327        7.4425337492       -7.3297400553
 H       -10.6649667184        9.2007009543       -6.3756166242
 H       -12.3833083322        9.0355793135       -6.7836873507
 H       -11.1948700658        9.4044826416       -8.0297536372
 H       -10.4930861425        3.8564125314       -6.6257699655
 H       -11.7141689994        4.9416917780       -6.2622434511
 H       -11.0517778646        4.9156413088       -3.9135326584
 H        -9.6367259706        4.0041674822       -4.2378728171
 H       -14.4366852404        2.8887487964       -1.2930080570
 H       -13.3607747365        4.2188959091       -0.6503181616
 H       -12.7546100330        1.4608351175        0.4569115923
 H       -14.4347538259        2.1634071065        0.9259873643
 H       -11.8571955800        0.5709863166        5.1522703735
 H       -11.0818757656        1.8781728194        4.4583877080
 H       -11.6172500407       -0.6543387798        2.9347186059
 H       -10.3377705873       -0.6435001801        4.1002000632
 H        -5.5690436595        0.3471739331        1.9799625952
 H        -6.3005607613        0.3414783738        3.5833152941
 H        -5.7259740213        3.0535991623        2.2746779634
 H        -4.4461135144        2.1327641545        2.9649201230
 H        -7.0763478273        6.8799295906        4.3300320425
 H        -7.8556483745        5.3781783236        3.9220267952
 H        -6.1480986315        7.2222483543        1.9899423243
 H        -7.8191648773        7.6426425622        2.5293116750
 H        -6.2771916106        4.4377160620       -2.8769839872
 H        -5.8398523068        5.9112061184       -2.2500442691
 H        -7.3400764660        5.7914961751       -3.2731754919
 H        -9.8848983946        5.8524854636       -0.2783402034
 H        -9.4164397778        7.1742029816       -1.4552026184
 H        -9.5253302597        7.4149455790        0.3930854128
 H        -6.5921643806        7.6200941062       -1.5816204819
 H        -5.6857333527        6.8877907207       -0.3131816183
 H        -6.9396220067        8.2344934994        0.0477193977
 H        -7.4618078999        4.5770525335        6.0020247677
 H        -6.2391550715        5.7057193308        6.3896254125
 H        -6.0172852350        4.0040323845        6.9629188141
 H        -3.8399409722        5.1441683217        5.7463044344
 H        -3.5389013717        4.0361662622        4.3433812755
 H        -3.8821998392        3.4080687863        5.9868878699
 H        -7.7731619420       -0.7722212242        3.8537282876
 H        -7.2480346490       -1.5937207782        2.4814176583
 H        -8.7998739682       -2.0468972773        2.9767376975
 H        -7.7090086889       -1.0556773184        0.2077500644
 H        -9.1925558224       -0.2194804122       -0.2865441728
 H        -9.2512823720       -1.8172294383        0.5766731318
 H       -13.1666861399        3.9030772715        5.2140328194
 H       -12.8713510265        5.1581012484        3.9779515896
 H       -11.5382263798        3.9296605480        4.3285099592
 H       -15.1418556766        3.9347679576        4.1174487274
 H       -15.4258312498        2.2470928492        3.4011093293
 H       -15.2949215988        3.6591790665        2.3837093458
 H       -13.4675833962        4.3804074745       -4.7552575239
 H       -13.3495344816        5.0239911008       -3.0904917601
 H       -14.7130617119        4.1548121267       -3.4953934037
 H       -12.9948659270        0.6813071596       -3.8342048973
 H       -14.1705778693        1.6718921667       -4.7108972483
 H       -14.3861907766        1.4182103501       -3.0032132637
 H       -10.7609448651        4.9375760139       -8.4238585954
 H        -9.0283264526        4.9923145223       -8.5500812671
 H        -9.9307220454        6.1319128214       -9.4870608899
 H        -7.5719130890        6.8153991543       -7.1630531884
 H        -8.4629237157        8.3048386926       -6.6525263802
 H        -8.3649472724        7.9107299998       -8.2943802519
 Na       -9.8836521075        3.3479277863        0.3918691102
