117

 C       -11.0886487164        8.7033121436       -7.1238677649
 C       -11.2584810314        7.2321278798       -7.3290980645
 O       -12.3388371869        6.6648436252       -7.1308246966
 C       -10.0277127838        6.2360214920       -7.5262593571
 C        -9.8178334540        5.5675666343       -6.0951633390
 O        -9.1092740866        6.0211056906       -5.2189280504
 C       -10.5830239605        4.2514377470       -5.8269652872
 C       -10.6191409872        3.7985152387       -4.4037786119
 C       -11.7315005982        2.7852745690       -4.2019058454
 O       -11.5632112562        1.6391111847       -4.6138604781
 C       -12.9087586999        3.0970475396       -3.2891926275
 C       -12.4345675416        3.1514912765       -1.7706179962
 O       -11.2547272639        3.0696293256       -1.4869933291
 C       -13.5501367992        3.3247996806       -0.7184446629
 C       -13.2149008260        2.4705704162        0.4313937352
 C       -12.6468093413        3.3962068402        1.5503898242
 O       -11.6859022639        4.1452510262        1.3525481942
 C       -13.2504616021        3.3071279407        3.0041654523
 C       -12.9268947987        1.8542808496        3.3270016356
 O       -13.6630598073        0.9253582717        2.9508766893
 C       -11.6358862112        1.4917838025        4.1355460590
 C       -10.7786244444        0.3175774202        3.5845509995
 C       -10.0562455496        0.5392030040        2.2907436953
 O       -10.6371691668        1.0853556301        1.3569767495
 C        -8.4847547391       -0.0098598131        2.0923840215
 C        -7.5633230139        1.2562541282        2.2183306817
 O        -7.8586981950        2.3858463077        1.8442699178
 C        -6.1697584197        0.9345564127        2.8310707318
 C        -5.4628316356        2.1814567202        3.2534698383
 C        -6.1858341015        2.8392491636        4.3950674033
 O        -7.3312520288        2.4546196823        4.6767618088
 C        -5.5897687655        4.1146181546        5.0390697452
 C        -5.6377627190        5.2120940737        3.8256332124
 O        -4.6324014852        5.4539485796        3.2195925539
 C        -6.8840119194        6.1481850032        3.6032234083
 C        -6.9183007927        6.6158152966        2.1892599949
 C        -7.7871112916        5.8260282190        1.2188511843
 O        -8.6233692986        5.0981351485        1.7166453152
 C        -7.6187811281        6.1382664503       -0.3177453280
 C        -7.4068290198        4.8246213838       -1.1800341090
 O        -8.0985637980        3.8319640055       -0.9750518565
 C        -6.4348211104        4.8683309414       -2.3559411508
 C        -9.0003712642        6.6432264650       -0.8413975747
 C        -6.5866773736        7.2506589039       -0.6033517256
 C        -6.3799297713        4.4418415914        6.2885207485
 C        -4.0863540668        3.9502986571        5.5165579116
 C        -8.0887064288       -0.9218694352        3.2751145971
 C        -8.2676426674       -0.7250726762        0.7326594895
 C       -12.6225961865        4.3219511887        4.0260689546
 C       -14.7748553882        3.4248318611        2.9490383478
 C       -13.5713194558        4.4132218159       -3.7936058461
 C       -13.9081580414        1.9002172495       -3.3838724106
 C       -10.5943624105        5.1411958139       -8.5523632890
 C        -8.6517600573        6.7482205585       -7.8877344121
 H       -10.3488838052        9.0414428106       -6.4020277202
 H       -12.0373541204        9.1086950615       -6.7961674952
 H       -10.9801222505        9.1629694783       -8.1324755784
 H       -10.0859098374        3.4666461436       -6.3940057964
 H       -11.5751309806        4.2116142606       -6.1365770656
 H       -10.7707874994        4.5672807433       -3.6835599108
 H        -9.6367340325        3.3040111003       -4.2026096348
 H       -14.5736813938        3.0369769949       -1.0816150399
 H       -13.6253557712        4.3705281122       -0.3387281399
 H       -12.3474658476        1.8241916373        0.1429060171
 H       -14.1688791308        2.0365907731        0.7181902691
 H       -12.0369951263        1.1654585663        5.0808807023
 H       -10.9517812749        2.3262962769        4.3082635281
 H       -11.3425490633       -0.6401430412        3.4611482996
 H       -10.0788002424        0.1200525770        4.3722751379
 H        -5.6399666312        0.3615915027        2.0650111581
 H        -6.2304677457        0.3186377273        3.7302593390
 H        -5.2511105209        2.8874522720        2.3838365373
 H        -4.4378463943        2.0693658926        3.6195473069
 H        -6.7655003132        6.8203264920        4.4091448044
 H        -7.7974318598        5.6035623270        3.8158460823
 H        -5.9088143946        6.5959990436        1.7514096721
 H        -7.2951032499        7.7012197979        2.0955744361
 H        -6.6472550809        4.1667460732       -3.1762954996
 H        -5.4246578092        4.7420860374       -1.9225857970
 H        -6.4869945007        5.8145841860       -2.8182321194
 H        -9.7861824922        5.9346129347       -0.5413053374
 H        -8.8673760430        7.0519212908       -1.8906431747
 H        -9.2698589947        7.5818874049       -0.2557199687
 H        -6.8386528717        7.6398562725       -1.6147836717
 H        -5.5922210974        6.8297531547       -0.5809709139
 H        -6.6135803989        8.0836326490        0.0960714193
 H        -7.4694674683        4.6554600273        6.0549296216
 H        -5.9782275822        5.3243787709        6.7150214073
 H        -6.3333409387        3.6856594703        7.0828434221
 H        -3.9524749323        4.8018310671        6.1808544547
 H        -3.3331929867        3.8157215421        4.7882926112
 H        -4.0266842711        3.0411713683        6.0301629623
 H        -7.9129362854       -0.4308587841        4.2557050708
 H        -7.2461246931       -1.6152753066        2.9866477739
 H        -8.9164250423       -1.5289977859        3.4388564408
 H        -7.2204317933       -0.6067514060        0.4141997947
 H        -8.8003164062       -0.2216713341       -0.0325384021
 H        -8.5125750887       -1.7764253430        0.8307266582
 H       -12.6994932222        4.0091010532        5.1029997431
 H       -13.0439122192        5.3599478928        3.8437952463
 H       -11.5633666679        4.3723091394        3.7997598438
 H       -14.9959855205        4.3396010334        3.5487033818
 H       -15.3326762971        2.5660135222        3.3521047051
 H       -15.1242946605        3.6223093451        1.9180976411
 H       -14.0212898285        4.3237760604       -4.7683871988
 H       -12.8608566567        5.2745293597       -3.8749771095
 H       -14.4669687223        4.5659604957       -3.1981624052
 H       -13.6759283767        1.1168239913       -2.6579826408
 H       -14.0856281620        1.3789938522       -4.3306458168
 H       -14.9006742708        2.2302133923       -3.0379576825
 H       -11.4492610586        4.6281201491       -8.0931299609
 H        -9.7920021516        4.3839483876       -8.7178969205
 H       -10.8837339101        5.4586128692       -9.5356680364
 H        -7.8952476782        5.9943856436       -7.7459335659
 H        -8.3100142220        7.5567620116       -7.2219266708
 H        -8.5680309795        7.1086468021       -8.8998290147
 Na       -9.8191459337        3.2238053201        0.5782994630
