117

 C       -10.8854736427        8.5627117180       -7.2063794606
 C       -11.2340095732        7.0472755995       -7.2050119368
 O       -12.3634464402        6.7131258421       -7.0584901217
 C       -10.1949906782        6.0412869241       -7.5639332406
 C        -9.8465607731        5.2913468453       -6.1028503220
 O        -9.0161991188        5.7870779518       -5.3302359078
 C       -10.7028584431        4.1092543823       -5.8029069221
 C       -10.5630806226        3.6648877547       -4.2818908383
 C       -11.6774195495        2.6429788401       -4.1813903230
 O       -11.6602517723        1.6109074870       -4.8221483166
 C       -12.8944556913        3.0596140785       -3.2915807898
 C       -12.3665022853        3.2672091395       -1.8450858569
 O       -11.1652210906        3.4496461940       -1.5934165416
 C       -13.4778336559        3.6199103615       -0.7877914938
 C       -13.2862626905        2.6611468739        0.5461023778
 C       -12.6467714707        3.5193630387        1.5737351316
 O       -11.7105035783        4.2727724006        1.4675469272
 C       -13.2445265836        3.3904118869        3.0030304409
 C       -12.7577445952        1.8769619283        3.3444508678
 O       -13.3369071166        0.9634702005        2.8713255676
 C       -11.5609865476        1.6795292809        4.1951505470
 C       -10.7245055710        0.4096597935        3.7853844635
 C        -9.9569996984        0.4631131738        2.4279977658
 O       -10.5518135080        0.9355699290        1.4542489595
 C        -8.5162357757       -0.0798829681        2.2837954723
 C        -7.5834917908        1.1779372011        2.3957355085
 O        -7.9722327050        2.2620718505        1.9935288884
 C        -6.1268686271        0.9428644308        2.6852652879
 C        -5.4419424040        2.0873583295        3.3798554968
 C        -6.2699424414        2.9081183591        4.3823965364
 O        -7.3627723355        2.5891736978        4.6507105840
 C        -5.6380956936        4.1930235560        5.0902114647
 C        -5.5303069315        5.2751043294        3.9810092666
 O        -4.4906776034        5.4911249887        3.3959462990
 C        -6.9789376535        5.8325577284        3.4697475994
 C        -6.8337252342        6.5316030150        2.0954768194
 C        -7.8656786371        5.9782336349        1.1216589402
 O        -8.7364806098        5.2057661716        1.4815824833
 C        -7.7033284598        6.2272145715       -0.4576275693
 C        -7.3955519646        4.8108107830       -1.1730043222
 O        -8.0388610485        3.8291186988       -0.8686095113
 C        -6.2099127173        4.6291107964       -2.1184182369
 C        -9.1420248239        6.6561842705       -0.8862307501
 C        -6.5941954624        7.3243986082       -0.7375800255
 C        -6.5222180343        4.6833995928        6.2154579994
 C        -4.1673890511        3.7473881824        5.4568354141
 C        -8.3479067659       -1.3031893373        3.2712549487
 C        -8.4133175990       -0.5884001644        0.8348760932
 C       -12.6544637790        4.5713846491        3.8327278040
 C       -14.8171437110        3.4667874225        3.0149393146
 C       -13.4862038883        4.4308278530       -3.7255912119
 C       -14.0018193229        2.0410320362       -3.3351654516
 C       -10.6857085638        5.0978503221       -8.6385141437
 C        -8.8878961674        6.6943132273       -8.0717644479
 H        -9.9130278070        8.6316403871       -6.7558275016
 H       -11.4974811282        9.1914386221       -6.5567880611
 H       -10.9036016011        8.9842091716       -8.1809107355
 H       -10.4114088907        3.2705859781       -6.4878260961
 H       -11.8063664281        4.3397110528       -6.0472784217
 H       -10.5724411659        4.4633610984       -3.5188435626
 H        -9.6379659355        3.1360356662       -4.3008520460
 H       -14.4340401676        3.4853509503       -1.1885198448
 H       -13.3892417538        4.6533252831       -0.5237358854
 H       -12.6146999964        1.9390979149        0.1558865299
 H       -14.2417249936        2.3231505620        0.9642296442
 H       -12.0233070284        1.5975922542        5.2182227750
 H       -10.9644413773        2.5986141666        4.0932943135
 H       -11.4486869031       -0.3796210394        3.7235869267
 H       -10.0661469050        0.1753945395        4.6759100938
 H        -5.7242351728        0.7359441721        1.6961283981
 H        -5.9708927073        0.0664882519        3.3032418613
 H        -5.0621894911        2.7861592025        2.6776866931
 H        -4.5037219176        1.7830261456        3.8760612327
 H        -7.3150326593        6.5295278273        4.2815137845
 H        -7.7013734607        5.0009242851        3.5419536362
 H        -5.8628628202        6.3395986571        1.6355101305
 H        -6.9004069702        7.5522906782        2.2308777074
 H        -6.5968913463        4.4532968337       -3.1377799163
 H        -5.5985787863        3.7924453811       -1.7905764495
 H        -5.5759795215        5.5514443721       -2.2327566729
 H        -9.7904984367        5.8799812706       -0.5184864353
 H        -9.1080621267        6.6838364734       -1.9222781382
 H        -9.4554638649        7.6083638700       -0.5882582723
 H        -6.6450835678        7.5970443769       -1.7752766964
 H        -5.5550906439        7.0056222178       -0.4147853766
 H        -6.8422948151        8.2548113560       -0.1736737755
 H        -7.5677227515        4.6955431089        5.9024329610
 H        -6.2011086381        5.6865454550        6.6649384040
 H        -6.5609600042        3.9316235581        7.0325347507
 H        -3.7154768451        4.6290298799        5.9434349958
 H        -3.5390525609        3.5274931501        4.5459294823
 H        -4.0935894876        2.7698171179        6.0052454571
 H        -8.4201108255       -1.0788131834        4.3208261026
 H        -7.3996956965       -1.6440123972        3.1009381858
 H        -9.1019734489       -2.1540844277        3.0572817417
 H        -7.4313647914       -0.4503296848        0.4078832584
 H        -9.0877167852       -0.0384138646        0.1226221705
 H        -8.6672362092       -1.6537147866        0.9126729141
 H       -12.9737913786        4.4918521640        4.8633137965
 H       -13.0207224447        5.4654194135        3.4132299663
 H       -11.5624885948        4.6370840103        3.8258818123
 H       -15.2876725027        3.8239197470        3.8965603002
 H       -15.0742607445        2.4058765604        2.9029593184
 H       -15.2084255999        4.0374245336        2.1755526646
 H       -13.6630242102        4.5489321603       -4.8126476239
 H       -12.7601488083        5.1438665290       -3.5495917985
 H       -14.4301892093        4.5782114535       -3.2345734867
 H       -13.9553712549        1.2524136380       -2.5701820361
 H       -13.9754504591        1.4756054667       -4.2801476510
 H       -15.0184039499        2.3911005801       -3.2253698352
 H       -11.7056070835        4.7787159034       -8.4624015057
 H       -10.0361548271        4.2730538544       -8.8558756942
 H       -10.7310411856        5.7212450038       -9.5674187287
 H        -8.1027794471        5.9175699760       -8.0863368739
 H        -8.4043312614        7.4493195698       -7.4475031263
 H        -8.9415591040        7.0793285460       -9.1010707012
 Na       -9.6758313962        3.2547840270        0.5128443401
