117

 C       -10.7757647435        8.5095971949       -7.1691363797
 C       -11.3008794029        7.0515100184       -7.2570071759
 O       -12.3990316851        6.7097639439       -6.9110444013
 C       -10.1460256440        5.9684874995       -7.6534083276
 C        -9.8466355358        5.3169479533       -6.2475763842
 O        -8.9538889228        5.6927677509       -5.4860409622
 C       -10.7208448728        4.1493048519       -5.9351429909
 C       -10.5293007288        3.5604445714       -4.4974812580
 C       -11.6574859780        2.6189293086       -4.2282330522
 O       -11.7807850972        1.5237965890       -4.7985964850
 C       -12.8623336310        3.0671451187       -3.2535871345
 C       -12.3809471281        3.4173315563       -1.7836777331
 O       -11.1877460023        3.5038027417       -1.5035242165
 C       -13.4216674390        3.7135504283       -0.7701480203
 C       -13.2651275730        2.7999325591        0.4561849890
 C       -12.7171633316        3.6476855862        1.5921707534
 O       -11.6882717875        4.2760875844        1.4385499383
 C       -13.3001086085        3.3588982248        3.0693753350
 C       -12.7185475697        2.0112272680        3.3884954431
 O       -13.2362624408        1.0177593500        2.8887513139
 C       -11.3582580198        1.8790699110        4.2591531610
 C       -10.7971672552        0.4722521198        3.9193514519
 C       -10.0917857048        0.4773032603        2.5925960646
 O       -10.6072233530        1.0929072870        1.6197472576
 C        -8.6467280364       -0.1662083146        2.3300469351
 C        -7.6417098538        1.0845882705        2.3829952452
 O        -7.9979437057        2.1907477309        2.0164935731
 C        -6.0623013913        0.8883879675        2.7052970497
 C        -5.4409721900        2.1187043897        3.3778687736
 C        -6.3081099680        2.8552850371        4.4589609094
 O        -7.4866245058        2.5920286831        4.6720252613
 C        -5.6317953768        4.0894844778        5.0413067445
 C        -5.5632653194        5.1736388979        3.8116205225
 O        -4.5330279463        5.6346672615        3.4366975721
 C        -6.8808444711        5.7551609232        3.3188266175
 C        -6.7833604802        6.4983089542        1.9756085595
 C        -7.8150749466        5.8971339071        1.0266060267
 O        -8.7854363293        5.2845447419        1.4518682316
 C        -7.7410207770        6.2012873744       -0.4938127759
 C        -7.2718384016        4.8252450821       -1.0455455140
 O        -8.0074547287        3.8549486047       -0.8773887573
 C        -6.1160389388        4.6960260580       -1.9645486318
 C        -9.1484017876        6.6332775773       -0.9847722683
 C        -6.6994222160        7.2779325289       -0.8490647888
 C        -6.4118634716        4.6771904939        6.2252036316
 C        -4.2126340665        3.8115010823        5.6826891708
 C        -8.3519681297       -1.4073551552        3.1926543432
 C        -8.3827795469       -0.5868810589        0.8137550543
 C       -12.6663200149        4.5264046317        3.9650670986
 C       -14.7972095808        3.3978151609        3.0186390976
 C       -13.4131437546        4.4522553272       -3.7923614523
 C       -14.0303204754        1.9993281459       -3.3392560397
 C       -10.7515644882        4.9248768796       -8.5951085776
 C        -8.8377318326        6.6819072685       -8.0875844246
 H        -9.8421769266        8.4813562005       -6.6618386347
 H       -11.3899390455        9.2432208576       -6.6243165205
 H       -10.6381964768        8.8983421750       -8.2125728464
 H       -10.5441050118        3.3938779753       -6.7391766987
 H       -11.7697190549        4.4298220814       -6.0162504769
 H       -10.5243580692        4.3221742213       -3.7360211911
 H        -9.5365427645        2.9970667138       -4.5351306008
 H       -14.3985621982        3.5586952118       -1.1847706372
 H       -13.3964102656        4.7585005826       -0.4475569002
 H       -12.6672727902        1.9439660234        0.1403965611
 H       -14.2736908809        2.5775687794        0.7345709452
 H       -11.6505727029        2.0044514967        5.3004673894
 H       -10.6369222681        2.6237186720        3.8874499726
 H       -11.6623367712       -0.1815411277        3.9253380633
 H       -10.0937950668        0.1276394687        4.7093866923
 H        -5.5880699569        0.7076863325        1.7269062931
 H        -5.8174220975        0.0193503495        3.3787031220
 H        -5.1107097703        2.8369941501        2.6712692013
 H        -4.5354095540        1.8357259288        3.9003534436
 H        -7.2670035489        6.3849122309        4.1250641990
 H        -7.5538124038        4.8552531305        3.3751448347
 H        -5.7720773005        6.4334455761        1.5513679957
 H        -6.9917473606        7.5298552323        2.1569393236
 H        -6.4402026922        4.8628068232       -3.0231854890
 H        -5.7786600984        3.6493322486       -1.8463079827
 H        -5.2984428252        5.3440579737       -1.7636931557
 H        -9.8518866431        5.8780600368       -0.6951655076
 H        -9.0737769836        6.6377166321       -2.0751358545
 H        -9.3803944684        7.6212607706       -0.6766493569
 H        -6.4866413941        7.2931217960       -1.8864984006
 H        -5.7748563828        7.1203050723       -0.2572383223
 H        -7.0721153783        8.2656973969       -0.6195747280
 H        -7.5145362516        4.7020508296        6.0357121225
 H        -6.0267025304        5.6351994910        6.5006647972
 H        -6.4033774306        4.0299279409        7.0786632032
 H        -3.8912700432        4.7292801168        6.2843650933
 H        -3.3574269733        3.5011317438        5.0399940793
 H        -4.3868073609        2.9333434283        6.2857612963
 H        -8.3007029662       -1.1256313626        4.2682736673
 H        -7.3747703749       -1.7831081617        2.9357212301
 H        -9.1316590680       -2.1512681474        3.1095525517
 H        -7.3118967809       -0.7416202743        0.7004060383
 H        -8.6259750860        0.2275749251        0.1284828365
 H        -8.9144348474       -1.5242377271        0.5605048605
 H       -13.0591897978        4.5542857770        4.9988264195
 H       -12.7978886896        5.4844123421        3.5234900908
 H       -11.6571441262        4.4039247658        4.0376235295
 H       -15.2669951157        3.3388926564        3.9870179723
 H       -15.2283988475        2.5669406654        2.4673347500
 H       -15.0501215016        4.3768732126        2.6276202643
 H       -13.5748251957        4.3194530426       -4.8841628093
 H       -12.6056112447        5.1868784934       -3.8054602857
 H       -14.3365777202        4.7648310041       -3.3251613226
 H       -13.9569800210        1.1895663578       -2.6240340886
 H       -14.1212051278        1.4814658075       -4.2982186678
 H       -14.9995718404        2.3782854589       -3.1063020241
 H       -11.7577255346        4.7188412465       -8.2374848924
 H       -10.1864235427        4.0224893803       -8.7269467602
 H       -10.9124645879        5.3771278550       -9.5837919488
 H        -8.1123073126        6.1151962866       -8.6616151247
 H        -8.2074484344        7.1163990790       -7.2454152974
 H        -9.1115776369        7.4791035210       -8.7219727750
 Na       -9.7505779095        3.2352050367        0.4627403716
