117

 C       -10.6730607281        8.4513841913       -7.1425618561
 C       -11.0678927363        6.9413548667       -7.0900347319
 O       -12.1428133903        6.4780264538       -6.7190076755
 C       -10.0698602363        5.8482704732       -7.8169008509
 C        -9.7321086178        4.9380570762       -6.6560327729
 O        -8.7553698618        5.2634124448       -6.0349670492
 C       -10.7563808217        3.8829175207       -6.2759269157
 C       -10.6293750390        3.4990893616       -4.7337162000
 C       -11.7160848084        2.5163846188       -4.2137339050
 O       -11.7522681412        1.3411974464       -4.3996558653
 C       -12.8840532053        3.1705366208       -3.2804379160
 C       -12.2253973520        3.4489920112       -1.8717902250
 O       -11.0898458943        3.1137320017       -1.6487781785
 C       -13.0229462915        4.1670163237       -0.7747070841
 C       -13.3256624971        3.2029288852        0.5451633203
 C       -12.6890235798        3.7983293683        1.8697007469
 O       -11.7503582264        4.5862373266        1.7556597357
 C       -13.2605208149        3.4654382941        3.2976095590
 C       -12.6269602330        2.0359709479        3.6548752006
 O       -13.2474426010        1.0226271513        3.3399121680
 C       -11.3243366165        2.0399475178        4.5288236560
 C       -10.4219092557        0.9274358400        4.0541121992
 C       -10.1102823331        0.9858922774        2.6107363128
 O       -10.7655349419        1.5482608925        1.7268262206
 C        -8.8617924013        0.0589804420        2.1488458146
 C        -7.6655567550        1.1139899358        2.2112026612
 O        -7.6260061278        2.1270102125        1.5723114211
 C        -6.4361916610        0.7404667629        3.1602559945
 C        -5.6644795654        2.0550936558        3.5008820666
 C        -6.3928231527        2.8435178682        4.6247760875
 O        -7.4567849071        2.4091181321        5.1489477408
 C        -5.6957469437        4.1949400262        5.0739041305
 C        -5.5841843506        5.2448859420        3.7979756456
 O        -4.5098082872        5.6071023447        3.3634501998
 C        -6.9168720183        5.6964175500        3.2008664651
 C        -6.6849630088        6.1417856411        1.7384060804
 C        -7.9270132705        5.7835814990        0.8717640431
 O        -8.8844529422        5.2645298447        1.3836580567
 C        -7.7650556020        6.0647694261       -0.6617161553
 C        -7.1444002706        4.6676262384       -1.1795398089
 O        -7.7599589090        3.6310658862       -1.0972595731
 C        -5.6923845398        4.5907258729       -1.7105278838
 C        -9.1804380662        6.1617359727       -1.3017600335
 C        -6.9353705504        7.3746695334       -0.8968436174
 C        -6.5766588083        4.7296497994        6.2720703625
 C        -4.3361335208        3.9217141727        5.7120531003
 C        -8.5727556107       -1.2016042749        3.0604277411
 C        -9.0518919886       -0.4985530130        0.7595136781
 C       -12.7279824762        4.5723234739        4.2550806816
 C       -14.8256441037        3.2881777681        3.3206084005
 C       -13.4687835542        4.4680745805       -3.8834147303
 C       -14.0558175780        2.1575193147       -3.2008573664
 C       -10.9830922348        5.2136117981       -8.9544717268
 C        -8.8546302920        6.5307509530       -8.3987530082
 H        -9.9909768313        8.6917251668       -6.3612199163
 H       -11.5153061654        9.1065219389       -7.1478876195
 H       -10.0874075531        8.5711622886       -8.0762455298
 H       -10.6460644947        2.8961899789       -6.8601564239
 H       -11.7666569718        4.3005388210       -6.5371313830
 H       -10.4563806577        4.3307193268       -4.1044245709
 H        -9.6329668785        2.9522093396       -4.7067282569
 H       -13.8971186900        4.6744258943       -1.0813616587
 H       -12.3677501481        4.8808801230       -0.3375493771
 H       -12.6796096872        2.3601453407        0.3420194915
 H       -14.3054901392        2.7840104580        0.4798882861
 H       -11.7001666308        1.7628976949        5.5293173504
 H       -10.7662773114        3.0016982890        4.4951520525
 H       -10.8616843012       -0.0522920165        4.2896985019
 H        -9.5198387468        1.0353480192        4.6760394450
 H        -5.7207846712        0.1981899437        2.5553635862
 H        -6.6523251131        0.1394441330        4.0574931254
 H        -5.6042217456        2.6759849567        2.6351638989
 H        -4.6740149258        1.7922349399        3.8559225274
 H        -7.2670362249        6.4637352040        3.9027216434
 H        -7.6351018390        4.8199783460        3.2132772340
 H        -5.8226955320        5.5918255324        1.4100368964
 H        -6.5034479190        7.1737561554        1.5940218589
 H        -5.2258964582        5.6028444879       -1.8051033948
 H        -5.5245287476        4.0462333885       -2.6774993112
 H        -5.1321298332        4.0212062603       -0.9989776871
 H        -9.6585464108        5.2555237493       -1.2383544989
 H        -9.0635368004        6.2326550589       -2.3590829229
 H        -9.6664631588        6.9844424420       -0.8745328158
 H        -6.8312016692        7.7240328016       -1.9506606920
 H        -5.8852228912        7.3447438587       -0.5451602898
 H        -7.4541848459        8.1863980257       -0.3429532745
 H        -7.6625359485        4.9960565515        5.9920742660
 H        -6.1932202205        5.6445769166        6.7184063517
 H        -6.7448363540        4.0178651018        7.1017113988
 H        -3.9845600721        4.9367425923        6.0779553587
 H        -3.5327617777        3.6708752415        4.9877066331
 H        -4.3775210924        3.2966403880        6.6050564098
 H        -8.4236801693       -0.9982109466        4.1290670104
 H        -7.6285676336       -1.6646843322        2.6619309383
 H        -9.3180899515       -1.8823160763        2.9357956665
 H        -8.1573700237       -1.0364819125        0.3967507190
 H        -9.4084504908        0.3150058632        0.1430913657
 H        -9.8922183764       -1.2227717194        0.7375086191
 H       -12.6161914254        4.3743218853        5.3269060206
 H       -13.3147310935        5.4908136434        4.2118111488
 H       -11.7871972730        4.8438498478        3.8551668674
 H       -15.1892690797        3.3422694452        4.3411220370
 H       -15.2409590760        2.3780191560        2.9444181669
 H       -15.2504332882        4.1852788238        2.8846569187
 H       -13.7433937525        4.2157992412       -4.8806230864
 H       -12.7776198364        5.3338680265       -3.8492045455
 H       -14.2794196244        4.7925619335       -3.2903528809
 H       -13.8542758936        1.1578563149       -2.8006190317
 H       -14.5419748024        1.9621992616       -4.1691784468
 H       -14.8911048669        2.4921789402       -2.5681686036
 H       -11.8873741236        4.7690249763       -8.5237056707
 H       -10.4522716828        4.4107471027       -9.4751679760
 H       -11.3174329016        5.9949671680       -9.6365984795
 H        -8.1424385333        5.8173483831       -8.8153384405
 H        -8.3022534805        7.0893874606       -7.5893669872
 H        -8.9792827862        7.2377604240       -9.1969240758
 Na       -9.7006923590        3.3667076281        0.3634778913
