117

 C       -11.7478524500        6.2519735611       -9.7424573160
 C       -12.1620492096        5.7064987982       -8.4371580770
 O       -11.8863924574        4.5837295707       -8.0480486492
 C       -12.8996123476        6.6943906945       -7.3851653921
 C       -11.8224740844        7.0418380336       -6.3047497067
 O       -11.9384751681        7.0064238414       -5.1150238285
 C       -10.3705285762        7.3999603957       -6.7878255059
 C        -9.3997971438        7.5803801053       -5.6252450766
 C        -9.0900371269        6.2000274252       -4.9161917081
 O        -8.7609669883        5.2636323254       -5.6066347620
 C        -9.2569716310        6.1014145190       -3.4049300042
 C       -10.6041799425        5.2726655444       -2.9092128522
 O       -11.2766377802        5.6033267003       -2.0166588639
 C       -10.7320217578        3.8537929599       -3.5738189210
 C       -11.6947238289        2.9783385929       -2.8021057997
 C       -11.4378475400        2.9483984900       -1.3250280496
 O       -10.3048656472        3.1724743232       -0.8741556061
 C       -12.5471068211        2.3194196827       -0.2729790745
 C       -12.4013503551        3.1878225268        0.9399025410
 O       -11.8223961703        2.6575879680        1.9193912674
 C       -13.0389274478        4.5988114394        1.1872819544
 C       -12.5185780278        5.0616485030        2.5824204873
 C       -10.9827585861        5.2463364658        2.7493795594
 O       -10.1632131140        5.1370400919        1.8491135023
 C       -10.2856579243        5.3615109862        4.1832365188
 C        -9.5646832747        4.0159359096        4.6051460914
 O        -9.1264838571        3.1657479108        3.8696245027
 C        -9.3718749468        3.9153941731        6.1928047897
 C        -8.2052025103        3.0233285155        6.6021260532
 C        -8.6130295436        1.5835045166        6.6923641761
 O        -9.7917554950        1.2001396207        6.7404252858
 C        -7.4774188957        0.5273976247        6.5482151721
 C        -7.0665620075        0.5616936516        5.0163108013
 O        -6.1852286481        1.3194251034        4.7682659676
 C        -8.0869495156       -0.0941347737        4.0498497612
 C        -7.4057200343       -0.8181522631        2.8378272220
 C        -7.6665599180        0.0688319006        1.5604858748
 O        -8.7286988650        0.6046047821        1.4593143001
 C        -6.5014168047        0.5157789950        0.4042137738
 C        -6.0570493867        1.9924069403        0.9482081020
 O        -6.7413772818        2.9997596581        0.7834226605
 C        -4.6163263943        2.1370838074        1.5383870141
 C        -5.3417326848       -0.4575868301        0.3754336587
 C        -7.0905690964        0.7526221416       -0.9807748025
 C        -6.3199807258        0.9697582814        7.5153884599
 C        -7.8456241919       -0.8776089249        6.9234225138
 C        -9.1735465407        6.3687321139        4.0913283171
 C       -11.2888859653        5.9472795956        5.2317389380
 C       -13.9798886132        2.4911276843       -0.7867138778
 C       -12.0501433346        0.8526184977       -0.1253193144
 C        -8.0327083582        5.3024981366       -2.8596383602
 C        -9.1593168209        7.4982055592       -2.8304430310
 C       -13.3702825323        8.0803664211       -7.9579764016
 C       -14.0419268400        6.0693298793       -6.5824867802
 H       -10.9454275455        5.5837957159      -10.2509550968
 H       -11.2699085179        7.2415559354       -9.7801601172
 H       -12.5694875449        6.2214218927      -10.4918953322
 H       -10.2789358680        8.1852275381       -7.5568824468
 H       -10.0499192403        6.4493056166       -7.3717900476
 H        -9.8046132536        8.2402526958       -4.9346323019
 H        -8.4808739485        7.9979022088       -6.0765778255
 H        -9.7792104915        3.3676208008       -3.5466528130
 H       -11.1470001365        3.8100072159       -4.6167661363
 H       -11.5508980607        1.9820904351       -3.2251451443
 H       -12.7125977590        3.2554974373       -3.0872055670
 H       -14.1185514441        4.4904048751        1.2151227412
 H       -12.6910092022        5.1793346855        0.3117835188
 H       -12.9741995415        4.5297208490        3.4028937482
 H       -12.9854549779        6.0628755094        2.7577437869
 H       -10.2464251722        3.6298009859        6.6925682905
 H        -9.2860065100        4.8621703608        6.6748016225
 H        -7.8672490847        3.4283015391        7.5915483881
 H        -7.3986388608        3.2509717901        5.9120491182
 H        -8.7350386224        0.7642994865        3.8138903717
 H        -8.8072730082       -0.7075662833        4.5790466348
 H        -7.6906052366       -1.8959943261        2.7573404259
 H        -6.3220201730       -0.7968405724        3.0643751166
 H        -3.9270414447        1.4821706394        1.1668124239
 H        -4.7438009444        2.1087725021        2.6781568118
 H        -4.2178631924        3.0932247364        1.3357296503
 H        -5.7082472925       -1.4013338375        0.0119198147
 H        -4.9152047076       -0.6338972274        1.2782123864
 H        -4.5816761180        0.0263390137       -0.3339579704
 H        -7.3711552545       -0.1376521535       -1.5203212246
 H        -6.3571461321        1.1506339588       -1.5829304607
 H        -7.9049124317        1.4560284920       -1.0245235895
 H        -6.3050078788        2.0410121487        7.5335824453
 H        -5.3200446476        0.6990681517        7.1398099143
 H        -6.4481832440        0.5563130205        8.4460103177
 H        -8.5674935902       -0.8543078422        7.7708723552
 H        -6.9172438895       -1.4602782243        7.2171955595
 H        -8.3556845542       -1.5040787761        6.1137975242
 H        -9.5651738763        7.3674561325        4.4097939818
 H        -8.7610354909        6.4032387993        3.0627625052
 H        -8.3396558418        6.2159516124        4.8113850458
 H       -11.0111795846        5.6884788950        6.2616947674
 H       -12.3309854498        5.5769312642        5.1944265395
 H       -11.3816329390        6.9868051002        5.0745242674
 H       -14.6653922661        2.4197955148        0.0779532381
 H       -14.1361648214        1.6571642315       -1.4219685792
 H       -14.1730381353        3.5280872031       -1.1866258034
 H       -11.4145053802        0.7202792258        0.7331415486
 H       -11.4145359430        0.5641851343       -0.9488126825
 H       -12.8433050632        0.1152675186       -0.0599490194
 H        -7.1528079465        5.9293229770       -2.8182245454
 H        -7.6904866310        4.4989538362       -3.5404709904
 H        -8.1699437386        4.9870897827       -1.8296767685
 H        -8.2775878916        8.0310020052       -3.2731349138
 H        -8.9534241806        7.5013339750       -1.7151750188
 H       -10.0460269111        8.1257724407       -2.8658959755
 H       -12.5475513481        8.6356082690       -8.4688157767
 H       -13.8154757186        8.7390483673       -7.2650081074
 H       -14.1634107591        8.0419474378       -8.7242259948
 H       -14.8131795919        5.6741501652       -7.2624655000
 H       -14.3923591469        6.8044645554       -5.8274497709
 H       -13.6285617620        5.2465753430       -6.1172534493
 Na       -9.4646478419        2.7976965772        1.2881639353
