117

 C       -10.6571320001        8.3427936436       -7.1073157960
 C       -11.1110546963        6.9089822040       -7.2614505545
 O       -12.0948925812        6.6263700819       -6.5542167449
 C       -10.1739706549        5.9107954202       -7.8631779917
 C        -9.7573179709        4.8888604747       -6.7025389698
 O        -8.7057664824        4.9349128325       -6.1412033285
 C       -10.7455451347        3.7388101826       -6.3098339860
 C       -10.7230578773        3.5394911252       -4.7914560076
 C       -11.7695581957        2.5323485223       -4.2116669510
 O       -11.6373141910        1.3425350721       -4.3544267352
 C       -12.9140255444        3.1974167827       -3.2264531481
 C       -12.1877248829        3.4164399507       -1.7605306226
 O       -11.0650586730        2.9709121300       -1.6301452980
 C       -12.8557293594        4.1285298308       -0.6610028044
 C       -13.2672624564        3.3175834661        0.5083268486
 C       -12.7065810742        3.8824736990        1.8677854288
 O       -11.7212126677        4.5508271690        1.7548248657
 C       -13.2180115608        3.5417905735        3.2507332520
 C       -12.6666455033        2.0775402493        3.7592285027
 O       -13.1868364820        1.0573035449        3.4558501220
 C       -11.3660859993        2.0851137079        4.5547056349
 C       -10.3401089955        0.9852602426        4.1210472826
 C       -10.1776941655        0.9867411031        2.6265596413
 O       -10.7482505840        1.7504153237        1.9055239829
 C        -8.9200199008        0.1115313825        2.0663880019
 C        -7.6206031504        1.0714771833        2.1187413002
 O        -7.6151825745        2.0110156344        1.3658777981
 C        -6.4343219326        0.7339641488        2.9543073814
 C        -5.7353141885        1.9685591852        3.5757189778
 C        -6.4449214847        2.8307110625        4.6888453336
 O        -7.4322551283        2.4456400245        5.2553661007
 C        -5.7114262373        4.2926722341        5.1632942898
 C        -5.6315500255        5.2121457946        3.9273856299
 O        -4.5911057900        5.5032740419        3.3522823802
 C        -6.9620746977        5.6740763182        3.2677397606
 C        -6.6548433378        6.0676231332        1.8097816638
 C        -7.9028613514        5.7812458321        0.8849069861
 O        -8.8822858273        5.2273114856        1.3429207171
 C        -7.7706720885        5.9554410978       -0.6696910310
 C        -7.0716369503        4.5962790672       -1.1617642448
 O        -7.7101314960        3.5567935065       -1.1661499123
 C        -5.6343311198        4.6051649139       -1.6914155721
 C        -9.2048023845        6.1646947328       -1.3508643894
 C        -7.0299055051        7.2337060268       -0.9829597430
 C        -6.5874164675        4.9271664227        6.2250434899
 C        -4.3206468515        3.9941976563        5.6950525142
 C        -8.7559504909       -1.0737637867        3.0129800050
 C        -9.0976754082       -0.2737224139        0.6168010763
 C       -12.9173620777        4.5391855403        4.3412448081
 C       -14.7664793551        3.3931870406        3.2755303794
 C       -13.3861603354        4.5746184734       -3.7896178100
 C       -13.9973938489        2.1360572392       -3.1210609552
 C       -10.9406026948        5.1693574051       -9.0726140364
 C        -8.8648105238        6.5208052594       -8.3844666083
 H        -9.8007116891        8.3546440088       -6.3937280666
 H       -11.4873687156        8.9134052056       -6.7510204458
 H       -10.2432702804        8.7487227975       -8.0164674825
 H       -10.5451996020        2.7473295743       -6.7550388536
 H       -11.7694419980        4.0165100619       -6.6025946861
 H       -10.8087594315        4.5427729754       -4.2762185702
 H        -9.6936409840        3.2791961047       -4.4690777041
 H       -13.7848757399        4.6221668834       -0.9728928438
 H       -12.1997145499        4.8767035595       -0.2644461289
 H       -13.0030395217        2.2812217518        0.3735504804
 H       -14.3363707184        3.2601383904        0.3302608857
 H       -11.6519518056        1.8711195429        5.5782138904
 H       -10.8868369760        3.0595463035        4.4577387362
 H       -10.7147643188       -0.0246879257        4.4692447370
 H        -9.4634297203        1.2081122131        4.6718614444
 H        -5.6547430686        0.2130555783        2.3279928907
 H        -6.7549898193        0.0458846022        3.7468797668
 H        -5.5561134630        2.6819909229        2.7726982335
 H        -4.8468420949        1.6166812389        3.9927243585
 H        -7.3519815082        6.5641036555        3.7910324024
 H        -7.7350682900        4.8698025237        3.2702035123
 H        -5.8264817308        5.5256016614        1.4304780381
 H        -6.4322346547        7.1779378849        1.7202885310
 H        -5.1034667466        5.5439069232       -1.7649166357
 H        -5.5995670353        4.1311921844       -2.6660075552
 H        -5.0701466098        3.8498481542       -1.0887907094
 H        -9.7739594371        5.2780889151       -1.3903352727
 H        -9.0192313887        6.2729544211       -2.3566463865
 H        -9.6645309076        6.9939818595       -0.9129019815
 H        -6.8653743475        7.3176898171       -2.0991718768
 H        -6.0508977933        7.3262312724       -0.6040727513
 H        -7.6046505053        8.1074839034       -0.6820307394
 H        -7.5252912625        5.3568617436        5.8689823371
 H        -6.0512754479        5.8267945850        6.5857795621
 H        -6.8642001751        4.3660059718        7.1434498954
 H        -3.8225540759        4.8208826766        6.1723130801
 H        -3.6386164501        3.7183158810        4.8573489522
 H        -4.4302099947        3.2151319707        6.5299051863
 H        -8.6097550848       -0.7890659498        4.0303871315
 H        -7.8765683930       -1.6993570659        2.6930531679
 H        -9.6241482483       -1.7124473026        2.9068762982
 H        -8.1239062343       -0.5973745719        0.1598123411
 H        -9.5730606408        0.5860807055        0.1639349985
 H        -9.7888677824       -1.0889031430        0.4512698668
 H       -13.1355619376        4.1943383834        5.2675930384
 H       -13.5550346918        5.3809493450        4.2027609770
 H       -11.9066340737        4.9544325842        4.3582225530
 H       -15.2066066319        3.7421968956        4.2187832464
 H       -15.1583561500        2.4245482202        3.1190540362
 H       -15.1730202962        4.0750086433        2.5765676567
 H       -13.5833490129        4.4837290086       -4.8150893139
 H       -12.6287128225        5.3392985033       -3.5353616628
 H       -14.2132058428        4.9711312718       -3.2092036566
 H       -13.6571999630        1.1993252494       -2.6970671749
 H       -14.5521198101        1.8520031214       -3.9897359296
 H       -14.7912486097        2.4319297552       -2.3995265598
 H       -11.7532621835        4.5514627223       -8.6898824440
 H       -10.2025385042        4.4608700778       -9.5034288818
 H       -11.3202181077        5.8509187095       -9.7873518168
 H        -8.1194309463        5.7251126555       -8.4501705144
 H        -8.4554435212        7.3598869952       -7.8982298889
 H        -8.9103356319        6.8336943786       -9.4705558994
 Na       -9.6517216007        3.3493176678        0.2695217558
