117

 C       -10.6834770368        8.3008757827       -7.1025605939
 C       -10.9791984019        6.8802056906       -7.0885873724
 O       -12.0095617690        6.5253104532       -6.5549939432
 C       -10.1982490332        5.8181982928       -7.8800027454
 C        -9.7849258572        4.5853574785       -6.8825679512
 O        -8.6446189585        4.4883985773       -6.4853667514
 C       -10.9039767302        3.7080879904       -6.3463440482
 C       -10.7271005672        3.7041292308       -4.8018844203
 C       -11.6730385078        2.6418907092       -4.1241043587
 O       -11.6073156794        1.4791502278       -4.3447199610
 C       -12.7768076703        3.2151332382       -3.0151700911
 C       -12.0236256158        3.2641876353       -1.7157784626
 O       -10.9832493676        2.6740958218       -1.4571763195
 C       -12.6982949580        4.1549062459       -0.6633220673
 C       -13.2202916711        3.3969048124        0.7038875509
 C       -12.6274656739        3.9414028098        1.9412952082
 O       -11.5247999118        4.4842584355        1.9954434434
 C       -13.3280320469        3.5973202792        3.2698822797
 C       -12.6706972410        2.2427005038        3.8135295832
 O       -13.2180064740        1.1763962486        3.5423314727
 C       -11.3232117330        2.3120764299        4.5702636081
 C       -10.4623573230        1.1281066671        4.1092966663
 C       -10.0113321492        1.2491371785        2.6981593410
 O       -10.5292332050        2.1549795273        2.0490569080
 C        -8.9564389739        0.3248306832        2.0220363618
 C        -7.7068730176        1.2405157732        1.9968987355
 O        -7.5812738940        2.1192539484        1.1512786955
 C        -6.5739623391        0.9930783711        3.0591587656
 C        -5.7617081738        2.1567817116        3.6193253419
 C        -6.4957794726        2.8719500159        4.7898568297
 O        -7.5283326479        2.3961223116        5.3080864997
 C        -5.8261786551        4.2247407856        5.1710769409
 C        -5.6715941593        5.0795889184        3.8241907203
 O        -4.5942486820        5.2699690982        3.2996680277
 C        -6.9346051289        5.6581717642        3.2263848647
 C        -6.7659760383        6.1785908664        1.8042723337
 C        -7.8994999638        5.6507157980        0.8506406607
 O        -8.8878017635        5.0767608264        1.2257448214
 C        -7.7374267568        5.8795467371       -0.7111637400
 C        -7.0382568445        4.5324445987       -1.1954002299
 O        -7.6878978351        3.5273540125       -1.2240081709
 C        -5.6248296032        4.5506854580       -1.6837615426
 C        -9.2039412333        5.9103952098       -1.3130893714
 C        -6.8844634927        7.1108988255       -1.1054181476
 C        -6.6204665122        4.9986801415        6.2089759550
 C        -4.3734897627        3.9370753301        5.6871119893
 C        -8.9065631602       -1.1052557041        2.6677216087
 C        -9.4292889545        0.0469952053        0.6253341544
 C       -13.1075945567        4.7433233589        4.2488546945
 C       -14.7785965760        3.3418068310        3.0457805386
 C       -13.3759967853        4.6140619946       -3.5122998827
 C       -13.9412731145        2.2197770744       -2.8834475102
 C       -10.9427215690        5.1324298315       -9.0260822839
 C        -8.8490323400        6.3727868004       -8.4237088814
 H        -9.6420831993        8.4366604206       -6.8776502104
 H       -11.3575768006        8.7985284395       -6.3833689559
 H       -10.7778156453        8.7286547742       -8.1339779615
 H       -10.7695547780        2.6853910219       -6.6414946598
 H       -11.8722009242        3.9739515966       -6.6970765256
 H       -10.8742131842        4.6882566483       -4.4309472348
 H        -9.6897967365        3.5041863959       -4.5337934303
 H       -13.6358302879        4.6011697019       -1.0450591863
 H       -12.0479495093        5.0591508893       -0.3708740979
 H       -12.9814887215        2.2904949278        0.6182943395
 H       -14.3307667806        3.2929445449        0.6726256360
 H       -11.4608652745        2.2846860330        5.6605636292
 H       -10.8504253691        3.2530373271        4.2899288450
 H       -10.9758069564        0.2349729383        4.3329685394
 H        -9.5539848926        1.1965894838        4.7785084917
 H        -5.9160077591        0.3863425046        2.4522836295
 H        -6.8892596391        0.3537360289        3.8962148481
 H        -5.4953356718        2.8900506188        2.8403346736
 H        -4.8746898843        1.6812729624        4.1916143032
 H        -7.3132139533        6.5214415957        3.7593607159
 H        -7.6961978436        4.8933418120        3.2166969406
 H        -5.8425086617        5.7778481360        1.2385073991
 H        -6.7414142058        7.2423933089        1.7917043319
 H        -5.0564819470        5.4378690694       -1.3983050471
 H        -5.5939052416        4.5467885464       -2.7942534614
 H        -5.1565045707        3.6369520644       -1.4452786054
 H        -9.7275496384        4.9355617028       -1.2674764327
 H        -9.1190263201        6.0659144417       -2.4522333102
 H        -9.7350450536        6.7549718277       -0.7736978479
 H        -6.5825622631        7.0646856414       -2.0990129067
 H        -5.9282850304        7.1548223697       -0.5683638992
 H        -7.3486024876        8.0679393711       -0.9668963302
 H        -7.6700785766        5.0722896370        5.8980344911
 H        -6.4007934221        5.9643640789        6.5414426184
 H        -6.5708105144        4.3756940073        7.0723061074
 H        -3.8938103713        4.8452702065        6.0772610668
 H        -3.7326510206        3.5636385730        4.9364054003
 H        -4.4427171084        3.3845389012        6.5434880255
 H        -8.4363973089       -1.1208372852        3.6883921511
 H        -8.3747765483       -1.7696643212        1.9923244879
 H        -9.8919782508       -1.5121183110        2.6919196369
 H        -8.6219239741       -0.4126301076        0.1343925932
 H        -9.8133301930        0.9178960980        0.1280065667
 H       -10.2367170256       -0.6881902094        0.5954919999
 H       -13.4822513134        4.5119189882        5.3113936855
 H       -13.5386370535        5.7220532157        3.9705658760
 H       -12.0691615714        4.9246579118        4.4204277171
 H       -15.2687752725        3.1583041078        3.9878888144
 H       -14.9502029170        2.4226583662        2.4261255947
 H       -15.3374925317        4.1754335225        2.5591587121
 H       -13.4802889063        4.4863161883       -4.6226430655
 H       -12.7865183410        5.4366963480       -3.1455443986
 H       -14.3495283593        4.8375015655       -3.0662850408
 H       -13.5667522604        1.2075451316       -2.8424324242
 H       -14.5384248026        2.1710683699       -3.7899749039
 H       -14.6348029582        2.2910580240       -2.0971093469
 H       -11.8780007322        4.7009986798       -8.6912190219
 H       -10.3031844664        4.3621149286       -9.3847459925
 H       -11.1073848741        5.8871299963       -9.8249579717
 H        -8.1659763971        5.5853048534       -8.6859448586
 H        -8.3378760298        7.1166805319       -7.7597565782
 H        -8.9514189311        6.9244275247       -9.3025838055
 Na       -9.6687644250        3.1045938775        0.2246009695
