117

 C       -10.6331937810        8.2530426490       -7.1864865957
 C       -11.0211471706        6.7732899867       -7.1388350714
 O       -12.0029675189        6.3084250116       -6.5076500440
 C       -10.1104822221        5.7050886300       -7.9163016896
 C        -9.7228768981        4.5740481969       -6.8301830343
 O        -8.5782792813        4.2746480594       -6.6879181040
 C       -10.9113356056        3.8244210232       -6.2968551891
 C       -10.7848646219        3.6972836254       -4.7446266762
 C       -11.7345717871        2.6985118994       -4.1488713878
 O       -11.6018098425        1.5198569207       -4.3662581116
 C       -12.7360504435        3.1965037432       -3.0775274274
 C       -12.0686826899        3.3206250146       -1.6201386484
 O       -11.1110792350        2.6128732415       -1.4216974912
 C       -12.5145625157        4.2427036406       -0.5056132204
 C       -13.1227098801        3.3522394088        0.6420021800
 C       -12.5241979269        3.9289194329        2.0057872146
 O       -11.5005191601        4.5453487976        2.0609129373
 C       -13.3910323194        3.6039378459        3.3188527535
 C       -12.6592304488        2.3305279563        3.8122611269
 O       -13.1975631397        1.2799959495        3.5925724337
 C       -11.3203363390        2.3698772078        4.5318478462
 C       -10.4921546949        1.1480285291        4.1970898971
 C       -10.0438034243        1.3399609397        2.7305612172
 O       -10.4272192093        2.2988064337        2.0989007339
 C        -9.0403142145        0.3774650668        1.9824530067
 C        -7.6642669511        1.2768664518        1.9873920011
 O        -7.4975969522        2.2131411400        1.2910730189
 C        -6.6654844004        0.8808849358        3.1225907894
 C        -5.9289116685        2.1283941970        3.4973450427
 C        -6.5363820401        2.8728656228        4.6835959460
 O        -7.5241512512        2.4503888385        5.2784534236
 C        -5.8438738577        4.2179568793        5.1867810227
 C        -5.6449452718        5.1534595908        3.7768664738
 O        -4.5954058286        5.1677841148        3.1594352013
 C        -7.0060683942        5.6372401530        3.2072867037
 C        -6.8101422864        6.2523719734        1.7633968861
 C        -7.8710589336        5.6731775195        0.7681802220
 O        -8.7453274521        4.9987735148        1.2475234142
 C        -7.7248200877        5.8371647848       -0.7241209216
 C        -7.0577959672        4.4710543770       -1.2285343460
 O        -7.7174307820        3.4426598959       -1.2526487946
 C        -5.5883432684        4.4365141466       -1.7495063476
 C        -9.0992294571        5.9315720132       -1.3941133049
 C        -6.9264923203        7.0860159625       -1.0573251296
 C        -6.6722198992        4.9236258345        6.2650346960
 C        -4.4601406382        3.9283472201        5.7661450815
 C        -8.7902055666       -0.9602513982        2.6098337089
 C        -9.6383463938        0.1197119863        0.5337623245
 C       -13.2416650116        4.9021573402        4.2271417553
 C       -14.8677610900        3.2988202619        3.0616148913
 C       -13.3320811322        4.5485324751       -3.4000563215
 C       -13.8487361384        2.2041701163       -2.8857312689
 C       -11.1033867610        5.1930864140       -9.0268493397
 C        -8.7464922497        6.3403563406       -8.4219006349
 H        -9.5595221484        8.2709857782       -6.9948571545
 H       -11.1730154078        8.7427562747       -6.3981852703
 H       -10.7505105364        8.8005095216       -8.1443098372
 H       -10.9483798302        2.8100182684       -6.7753369068
 H       -11.8565400851        4.2803953294       -6.6191193231
 H       -10.8683635919        4.6479372557       -4.3255572573
 H        -9.7864254609        3.3430198696       -4.4271891687
 H       -13.3758981719        4.8117671822       -0.8598079350
 H       -11.7869621473        4.9669148365       -0.1052135306
 H       -12.8353999175        2.3167278154        0.4288118032
 H       -14.1976716743        3.2025145359        0.5843089378
 H       -11.6217129317        2.4002151361        5.6000637774
 H       -10.7739969246        3.3186178755        4.3218615798
 H       -11.1452116792        0.2713630040        4.3629580873
 H        -9.6346058986        1.0878269363        4.8860452087
 H        -6.0666872129        0.0714535404        2.7647515391
 H        -7.1796594804        0.5115239923        4.0044427144
 H        -5.9400721333        2.8275057345        2.6409862427
 H        -4.9289963412        1.8960615464        3.9046964124
 H        -7.3885762344        6.4560514704        3.8005653375
 H        -7.7543105325        4.8161864671        3.1820472325
 H        -5.8339666627        5.9989430426        1.3291049617
 H        -6.9156358823        7.3213282667        1.7957009053
 H        -4.9579626736        5.0299358143       -1.0879783017
 H        -5.3556442480        4.8421273631       -2.7544354447
 H        -5.2737001365        3.4011503627       -1.7876936838
 H        -9.6598333748        4.9785943868       -1.3361000224
 H        -8.9837719271        6.1359951245       -2.4959016939
 H        -9.6278496207        6.7637977572       -0.8423642330
 H        -6.7154962634        7.3160877196       -2.1388124606
 H        -6.0109409197        7.2387187497       -0.5373995943
 H        -7.5643756152        7.9213135597       -0.7308807397
 H        -7.7409381185        4.8332101531        5.9839929797
 H        -6.5932552378        5.9450370521        6.5422254736
 H        -6.4755507845        4.3964463938        7.1989822479
 H        -3.9468759657        4.8067806636        6.0641719350
 H        -3.8445725711        3.4170221492        5.0728869423
 H        -4.5665599833        3.4468491106        6.7272330164
 H        -8.2551718358       -0.8375100979        3.5383289732
 H        -8.1543179362       -1.5565644468        1.8791445878
 H        -9.6307776809       -1.5339780737        2.7356873365
 H        -9.0166807810       -0.5972251272       -0.0295025851
 H        -9.7644851244        1.0282785327        0.0075648811
 H       -10.6283425899       -0.3080533308        0.5791479882
 H       -13.5577645261        4.7315451163        5.2527007728
 H       -13.7886362623        5.8334795241        3.8730814135
 H       -12.1708715281        5.2096931894        4.3949022898
 H       -15.2477050875        2.8635455716        4.0347491991
 H       -15.0626915316        2.5521695707        2.2868339855
 H       -15.5166091594        4.1624308108        2.8168517756
 H       -13.5536461030        4.6164987166       -4.4221809965
 H       -12.6437759806        5.3255080523       -2.9486643283
 H       -14.2468402944        4.6906002462       -2.8354365373
 H       -13.4597645619        1.1973956994       -2.8728188072
 H       -14.6143065875        2.1339204449       -3.6340836048
 H       -14.4052691969        2.2949263318       -1.9492392275
 H       -12.0416974985        5.0876552594       -8.4785479770
 H       -10.9034212596        4.2604528030       -9.5928323244
 H       -11.2092955273        6.0340979579       -9.6849214310
 H        -8.2466877833        5.7265212516       -9.1495766723
 H        -8.0319014287        6.6094476024       -7.6511256412
 H        -8.9229299839        7.3002451060       -8.9108902614
 Na       -9.5761127394        3.0709869691        0.2507054024
