117

 C       -10.5240548890        8.1808675191       -7.1462887400
 C       -10.8926866391        6.6965025986       -7.1060876128
 O       -11.7546718271        6.3258296967       -6.3013193200
 C       -10.2018248393        5.6390882647       -8.0235247219
 C        -9.7429908388        4.2477602726       -7.1339946264
 O        -8.6202229146        3.8662547449       -7.0550415057
 C       -10.7729688632        3.5558423677       -6.2782248913
 C       -10.6830180801        3.7214877517       -4.7269063946
 C       -11.6588223659        2.6711705054       -4.0351762601
 O       -11.8196715894        1.5628763927       -4.4645433858
 C       -12.7341116415        3.2517832803       -2.9312889065
 C       -11.8910063127        3.2466918261       -1.5152021803
 O       -10.9145632609        2.5099957731       -1.4765729001
 C       -12.2860245949        4.1991900698       -0.4159769050
 C       -13.0254285425        3.5274364403        0.7845676376
 C       -12.5770539881        4.3180310199        2.1440094889
 O       -11.9330628280        5.3082977506        2.2278634174
 C       -13.4185110511        3.7122835080        3.4252542409
 C       -12.7633481880        2.4203340795        3.9836105021
 O       -13.2440497342        1.3476274020        3.6900728460
 C       -11.3924403577        2.4960196104        4.6940928969
 C       -10.5114329424        1.3417215814        4.2876650275
 C       -10.0844447799        1.3965204689        2.7787418846
 O       -10.4480798806        2.3711389158        2.1529816520
 C        -9.1729355662        0.3384018089        2.1000522312
 C        -7.8105892643        1.1662417627        2.1646939607
 O        -7.6434819063        2.0007879456        1.3463151832
 C        -6.6104697884        0.7663758634        3.1191238061
 C        -5.8362200111        1.9709688517        3.5860010849
 C        -6.5707012925        2.8638334487        4.6230838253
 O        -7.6955245731        2.5217299516        5.0270063602
 C        -5.9264723391        4.2703437543        4.9947277287
 C        -5.7833293675        5.0810940157        3.6916536319
 O        -4.7911959945        4.9999637830        2.9804497546
 C        -6.9456004866        6.0024048344        3.2102944178
 C        -6.7780330181        6.4138608887        1.7872788461
 C        -7.7654005120        5.6033346079        0.8523284273
 O        -8.6674401297        4.9132356484        1.2453586930
 C        -7.4696356619        5.7914180689       -0.7514154921
 C        -6.9505674717        4.4406085162       -1.3920834906
 O        -7.6775873806        3.4667566375       -1.4651143197
 C        -5.5253462913        4.3270495325       -1.9048933434
 C        -8.8964541973        6.0232149086       -1.3445515438
 C        -6.4984988334        7.0032870635       -1.0584471837
 C        -6.8439822035        4.9880473539        6.0665483992
 C        -4.5550679146        4.0536080817        5.5969801514
 C        -9.1872877580       -1.0251411712        2.8740569155
 C        -9.4771688268        0.1604794856        0.5985925272
 C       -13.3843424033        4.8268964791        4.5295946500
 C       -14.8688309727        3.3696093430        3.0278633119
 C       -13.4580426143        4.5977349125       -3.3061062005
 C       -13.8110126954        2.1866237143       -2.7507151552
 C       -11.1963415278        5.1078277769       -9.0876790773
 C        -8.8743647767        6.0802386247       -8.5894753619
 H        -9.5467175108        8.2617060434       -6.7143673267
 H       -11.2572816500        8.8370063302       -6.6963801880
 H       -10.2847312147        8.4282554774       -8.2085337378
 H       -10.6560115257        2.5224893609       -6.5368085757
 H       -11.7295506338        3.8010013582       -6.6435930390
 H       -11.0408489958        4.7058351187       -4.5116890595
 H        -9.6044168379        3.6332342245       -4.3714097672
 H       -12.9883604967        4.9511454417       -0.7653921933
 H       -11.3933885798        4.7311097218        0.0176000437
 H       -12.7585342672        2.4111671765        0.8612303914
 H       -14.1173103541        3.4252771051        0.7138213964
 H       -11.5638557660        2.4680183715        5.7709893796
 H       -10.8948582583        3.4431470824        4.5772553383
 H       -11.0460579788        0.4547358185        4.5289963682
 H        -9.5968417871        1.3771939598        4.9526072800
 H        -5.9013614024        0.2580169408        2.4568247224
 H        -6.8241970813       -0.0009440622        3.9139937002
 H        -5.4643556950        2.5839879083        2.7630907522
 H        -4.9913389905        1.5000895338        4.1946854503
 H        -6.9784603814        6.8933115929        3.8289523074
 H        -7.9109631092        5.5084556978        3.2766797706
 H        -5.6642170930        6.2127608944        1.4752324562
 H        -7.0015123241        7.4378084959        1.5670870129
 H        -4.9316639640        3.6277903064       -1.3054110061
 H        -4.9006589816        5.2533699798       -1.9829064117
 H        -5.6260198787        3.8913576206       -2.8651985880
 H        -9.5353016591        5.2596309499       -0.9641445705
 H        -8.8385746596        6.1624700876       -2.4423212813
 H        -9.3596945111        6.9375386167       -0.9810906670
 H        -6.3153841890        7.0663390059       -2.1139951967
 H        -5.5564029615        6.8615981412       -0.5382404721
 H        -6.7952948295        8.0008614188       -0.8128572144
 H        -7.7807098707        5.3824594771        5.6048020151
 H        -6.4170031305        5.8612916634        6.4515216863
 H        -7.0286249381        4.4520137699        6.9651727492
 H        -4.3161932064        5.0122155676        6.1483450494
 H        -3.7988213838        3.8710168771        4.8055384452
 H        -4.4854528336        3.2970277048        6.3795055352
 H        -9.4995018778       -0.8333003717        3.9342335590
 H        -8.1902673566       -1.5611777544        2.8636761234
 H        -9.8753210227       -1.6667602572        2.4734371824
 H        -9.6294123067       -0.8828431976        0.3369339914
 H        -8.6662832307        0.4980898848       -0.0415480027
 H       -10.3926057282        0.7264302984        0.3322404715
 H       -13.7715543502        4.5388138359        5.4906849524
 H       -13.8795780214        5.7229523695        4.2272954930
 H       -12.4127116028        5.1337987590        4.7692443345
 H       -15.5046479613        3.4222632701        3.8746161012
 H       -14.9899571250        2.4322580083        2.5491570246
 H       -15.2258008131        4.0346453804        2.2714033329
 H       -14.1305731046        4.4109950743       -4.1553428731
 H       -12.7027482278        5.4159867355       -3.4772789745
 H       -14.1573574403        4.7455422615       -2.4877315651
 H       -13.4019543323        1.2460517674       -2.3946318156
 H       -14.3464087457        1.8726634270       -3.6471566255
 H       -14.6092252500        2.4268725919       -2.0803908460
 H       -11.9693418351        4.5005286709       -8.6359253863
 H       -10.5574515253        4.4813515950       -9.6808332326
 H       -11.5866271473        5.8618349299       -9.7802274292
 H        -8.4738788314        5.4380461658       -9.3565394339
 H        -8.1121099866        6.0018699996       -7.7520657698
 H        -8.7870103292        7.1029476574       -8.8933006108
 Na       -9.4943700489        3.0721555082        0.0201253992
