117

 C       -11.7124545021        6.2687799894       -9.7870121320
 C       -12.1897094260        5.7149172789       -8.3992453232
 O       -12.0115093450        4.5822934476       -8.1247712791
 C       -12.8761669913        6.6393932538       -7.4028039511
 C       -11.8479799132        6.9259367814       -6.2997176468
 O       -12.2435613926        6.9171650961       -5.1499543046
 C       -10.4051898864        7.2351134217       -6.8052960316
 C        -9.5029804998        7.3850878370       -5.6544125153
 C        -9.1003457600        6.0715715124       -4.9951494525
 O        -8.5800793624        5.1716247502       -5.5969576150
 C        -9.2144042660        6.0635384358       -3.3492202414
 C       -10.4689323974        5.2256586178       -2.9430370955
 O       -11.3929943585        5.6318218486       -2.1931538433
 C       -10.6747166565        3.8910597119       -3.6408482188
 C       -11.7562681289        2.9683720194       -2.8163658326
 C       -11.4326272317        2.9055142034       -1.2744848658
 O       -10.3196418241        3.1051943235       -0.8927614148
 C       -12.5440053222        2.4134539831       -0.2756129318
 C       -12.4191593686        3.0929240251        1.1870602105
 O       -11.7808331031        2.6791325978        2.1054017266
 C       -13.1457917019        4.4846076128        1.3794753820
 C       -12.5554288346        5.0870339014        2.6296620153
 C       -10.9763252164        5.1836934224        2.7671688980
 O       -10.2879532281        5.1477520125        1.7144409894
 C       -10.2899474847        5.4100230872        4.1715566524
 C        -9.6485037252        4.1200701951        4.6911185368
 O        -9.1073171508        3.3025534637        3.9360896769
 C        -9.2947598067        4.1349019389        6.1622442806
 C        -8.2735580442        3.0706362483        6.5377099140
 C        -8.6969695755        1.6147566646        6.6499781275
 O        -9.8640569195        1.2529784832        6.7306047690
 C        -7.4228842214        0.6174194079        6.5526699099
 C        -6.9308552632        0.7168704960        5.0097621105
 O        -6.0077072969        1.3918406135        4.5932012913
 C        -7.7825674259       -0.0975666838        3.9510434255
 C        -7.1925713540       -0.7254439535        2.6733667167
 C        -7.6053684339        0.1807790063        1.5229468413
 O        -8.7312291794        0.6541927446        1.5267773583
 C        -6.5002933034        0.5007337885        0.4955743450
 C        -6.0148577068        1.9654811224        0.9846276332
 O        -6.8017889446        2.8556728913        0.7805027450
 C        -4.6475426832        2.1801347658        1.5566950642
 C        -5.3641737543       -0.5055211111        0.4584970416
 C        -7.1379424175        0.7107902331       -0.8442413141
 C        -6.2144902150        0.9772039409        7.5618075361
 C        -7.8396934699       -0.8708831889        6.9601741331
 C        -8.9922738280        6.3719376100        4.0424261881
 C       -11.3433725877        6.0070996578        5.1967633411
 C       -13.9930972325        2.5518088433       -0.8017089753
 C       -12.1833352682        0.9715489440        0.0224185588
 C        -7.9907172422        5.2280163352       -2.8242794290
 C        -9.1895155556        7.5256968858       -2.8511930671
 C       -13.4758411332        7.9661739611       -8.0322850118
 C       -14.0833556775        5.9457338108       -6.6575793045
 H       -10.7996052377        5.7257131487      -10.1229356511
 H       -11.3126588739        7.3494734917       -9.7998874283
 H       -12.3843586405        6.1473802437      -10.6213746541
 H       -10.4255969918        8.1431995660       -7.4116362487
 H       -10.0623786614        6.4047358169       -7.5133895240
 H       -10.0457789603        7.9797322569       -4.8489058592
 H        -8.6011578189        7.8512730640       -5.9748618988
 H        -9.6816241599        3.3016074436       -3.6551339575
 H       -11.0857369186        3.9611251207       -4.6983034621
 H       -11.7901620095        1.9453452747       -3.3256713981
 H       -12.7570348170        3.4041118355       -3.0148276739
 H       -14.2141286796        4.2136444501        1.4841384346
 H       -12.9281424981        5.0582594168        0.4356665033
 H       -12.9573302829        4.5900703355        3.4582117977
 H       -12.9228144587        6.1626697443        2.8088852102
 H       -10.2103625184        4.0127591015        6.7342024342
 H        -9.0574325833        5.0972102983        6.5971314819
 H        -7.9544067895        3.3284091425        7.5770488897
 H        -7.3827594299        3.3157636945        5.9354554914
 H        -8.6576153605        0.4899453299        3.7653772836
 H        -8.2191772515       -0.8974785865        4.4873724189
 H        -7.6881052122       -1.7005469195        2.6070297891
 H        -6.0557632159       -0.9822965774        2.7833957943
 H        -3.7615083010        1.9027249478        0.9085242586
 H        -4.6714780628        1.7709152199        2.5585539074
 H        -4.5660032698        3.2522457433        1.7095854059
 H        -5.6395114646       -1.5592321087        0.4951421692
 H        -4.6787610666       -0.3482071485        1.3120260329
 H        -4.8405058761       -0.2414254620       -0.4037215993
 H        -7.5456360489       -0.1904075071       -1.2537230262
 H        -6.3329288699        0.9945882078       -1.5737101943
 H        -7.8796211149        1.4519248573       -0.9338351486
 H        -6.2386934087        2.0840413593        7.8007830157
 H        -5.2734916379        0.8080637229        7.0924158686
 H        -6.2745973917        0.3613907489        8.4574128910
 H        -8.2785097157       -0.8670336609        7.9916893622
 H        -6.9522713809       -1.5189633264        6.9295987177
 H        -8.6036305933       -1.3293374792        6.3059419337
 H        -9.2364589122        7.3771337841        4.2643040429
 H        -8.5149833788        6.2965906884        3.0513069469
 H        -8.2405431315        6.1700634103        4.8747892285
 H       -11.0626635939        5.7125651126        6.1998291615
 H       -12.2806369598        5.3799623880        5.1817731666
 H       -11.6880520460        7.1002288546        5.1220988290
 H       -14.6178105291        2.1337259916        0.0381635043
 H       -14.1429428815        1.9365621879       -1.7120987617
 H       -14.2650430501        3.5468109676       -0.8656912480
 H       -11.1853729222        0.9265638920        0.4360468025
 H       -12.1580959920        0.2413065180       -0.7727246379
 H       -12.9127422316        0.6348079746        0.7609767636
 H        -7.0882063615        5.7492617096       -2.5189081064
 H        -7.6622172943        4.5155956836       -3.5762235812
 H        -8.3079058396        4.7350403481       -1.9114543608
 H        -8.5122881613        8.1161459058       -3.4637091333
 H        -8.8798081044        7.7779947253       -1.8385763342
 H       -10.2010768303        7.9600190376       -2.9510145864
 H       -12.7607002874        8.5187753194       -8.6254092345
 H       -13.8494767083        8.6818956752       -7.3702046916
 H       -14.3201767533        7.7891494720       -8.7520688439
 H       -14.9215188399        5.9856435719       -7.3844583443
 H       -14.2922751185        6.4268896913       -5.7023502710
 H       -13.8466853757        4.8728746994       -6.6030537556
 Na       -9.3596966852        2.9190665056        1.2902935777
