117

 C       -10.3240699522        8.0534791813       -7.2145707298
 C       -10.6885383742        6.5484955722       -7.0428285887
 O       -11.3977437972        6.1153418259       -6.1112073722
 C       -10.2301152777        5.3245926400       -7.9939468535
 C        -9.9209298424        4.0658048617       -7.0684109611
 O        -8.7559742894        3.7438854788       -6.9894532074
 C       -11.0055745636        3.2631839636       -6.3397292084
 C       -10.8824549334        3.5605012870       -4.8568695548
 C       -11.8872193383        2.6672794105       -4.0535364614
 O       -12.1160593749        1.5037451548       -4.3508279841
 C       -12.6891476060        3.3003356438       -2.7264509443
 C       -11.7649099337        3.5218119246       -1.4697851458
 O       -10.7480691221        2.8190549728       -1.4012108024
 C       -12.2082714738        4.4317284474       -0.3520879510
 C       -12.9800130424        3.6649943437        0.7958464912
 C       -13.0374647529        4.5563263074        2.0653511767
 O       -12.5841758187        5.6773357731        2.1043585308
 C       -13.7033701494        3.9389352914        3.4314536416
 C       -12.9137741249        2.6195019114        3.6779801870
 O       -13.2941087386        1.4921056300        3.4374187514
 C       -11.5517387799        2.7328797604        4.3617705037
 C       -10.7165211221        1.4431013169        4.2997554068
 C       -10.1216368064        1.3661928348        2.8705013231
 O       -10.4007231276        2.3052693282        2.1053954494
 C        -9.1055686167        0.2100404118        2.4402899621
 C        -7.7025192066        0.8934387651        2.3974595291
 O        -7.4580268927        1.7017840433        1.5334115827
 C        -6.6234799407        0.5414878454        3.4208810414
 C        -5.8330553435        1.8059655081        3.6816419988
 C        -6.6796942508        2.8734539091        4.3808019746
 O        -7.8470383716        2.6375622063        4.5855488688
 C        -6.1032633633        4.1960999495        4.7931369708
 C        -5.9393736127        4.9912860317        3.3910637813
 O        -5.1371138639        4.5931506797        2.5915002698
 C        -6.8872200641        6.1861510475        3.1222854157
 C        -6.7814801961        6.8101331723        1.7115479542
 C        -7.3240568740        5.7804316170        0.6879992038
 O        -8.0349521189        4.9086573840        1.1713678847
 C        -7.1622904986        5.9533422042       -0.8462829892
 C        -6.8081092258        4.5511251410       -1.3975757558
 O        -7.6632854216        3.6591210602       -1.2746038857
 C        -5.4453346139        4.1961497534       -2.0776324553
 C        -8.4571663561        6.3627766750       -1.5455374443
 C        -6.0718206531        6.9593386260       -1.1972658478
 C        -6.9690030125        4.9611360808        5.8588295008
 C        -4.6679316857        4.0875601486        5.3958813763
 C        -9.1368279802       -1.0186262645        3.3855181398
 C        -9.4444894445       -0.2549111250        0.9816557049
 C       -13.4605940893        5.0406808447        4.4842373281
 C       -15.1688483560        3.5243069097        3.2235309505
 C       -13.3785438269        4.6068272625       -3.2431875741
 C       -13.8561237910        2.2375285788       -2.3387360077
 C       -11.4033349172        5.0981489298       -8.9373887332
 C        -8.9098029445        5.6680659660       -8.7508514821
 H        -9.2627266326        8.1717892121       -7.1724934673
 H       -10.7570051323        8.5963946597       -6.3945923760
 H       -10.6862034562        8.4157391342       -8.1959340702
 H       -10.8470146166        2.1863607137       -6.5169020169
 H       -12.0016836677        3.5217589492       -6.6933807641
 H       -11.0277092824        4.6177466454       -4.6514730952
 H        -9.8108420752        3.2066495551       -4.5139855497
 H       -12.8082367888        5.2117386571       -0.7595073741
 H       -11.3583591497        4.8512509330        0.1536383622
 H       -12.5236450669        2.7134084151        1.1037423468
 H       -14.0026664443        3.4015928527        0.6451120726
 H       -11.7817138393        2.8420806484        5.4240531864
 H       -10.9802965075        3.6371493636        4.2092472552
 H       -11.3408896941        0.5969543031        4.4937786454
 H        -9.9169263780        1.5271356247        5.0863062120
 H        -5.9591110725       -0.2698724550        3.0886951257
 H        -7.0484592509        0.0999945533        4.3617907035
 H        -5.3801413917        2.1825905104        2.7960606213
 H        -5.0432535868        1.5558072760        4.3960498570
 H        -6.7197055279        7.0151605756        3.8288593543
 H        -7.9230701181        5.8827542804        3.3359118675
 H        -5.7302860080        7.1225305191        1.4098150039
 H        -7.3568898542        7.6901133395        1.6834329837
 H        -5.4745227716        3.3826597719       -2.8013153682
 H        -4.6469113621        4.1183426883       -1.3107531523
 H        -5.1856430361        5.0602484238       -2.6937962977
 H        -9.2050776012        5.6607956590       -1.3854939302
 H        -8.2815273412        6.6602907267       -2.5455691699
 H        -8.8029476711        7.2439796673       -1.0702265800
 H        -6.0673014334        7.0902519614       -2.3425254486
 H        -5.0620973076        6.7206251325       -0.8730893347
 H        -6.2724906172        7.9848714605       -0.8028303663
 H        -8.0995179211        4.8690688022        5.7585483558
 H        -6.6753321466        5.9951841116        5.9554028592
 H        -6.8840646917        4.5420649094        6.8803690043
 H        -4.3417720931        5.0928833560        5.7117007319
 H        -3.9024253218        3.5497761813        4.8157612152
 H        -4.8175373504        3.3604386244        6.2325185386
 H        -9.1125378692       -0.8080705534        4.4409535655
 H        -8.2136940255       -1.6150586613        3.1294840825
 H        -9.9802445901       -1.6249915443        3.2040887728
 H       -10.4016883594       -0.8052881198        0.8921398167
 H        -8.7333175691       -0.9938455190        0.6396853484
 H        -9.6135155975        0.6204827262        0.3444585175
 H       -13.6349046768        4.7497049191        5.4673213498
 H       -14.0477725407        5.9397823972        4.3319466180
 H       -12.4217022276        5.3680059655        4.4550484251
 H       -15.4559018684        2.8083633157        4.0161426855
 H       -15.3865020951        3.0414462558        2.2842539865
 H       -15.8579434120        4.3704739315        3.3062687050
 H       -13.7201274361        4.4313640777       -4.2197762260
 H       -12.6362705437        5.4200164853       -3.3927982238
 H       -14.1870878042        4.7907123649       -2.5772034289
 H       -13.4703633740        1.2095519036       -2.2685884882
 H       -14.6629608870        2.1570934113       -3.0763707201
 H       -14.3887239184        2.3490979867       -1.3823572530
 H       -12.3317170575        4.9412196645       -8.3705156459
 H       -11.1096131546        4.1922296718       -9.4793111829
 H       -11.5636729135        5.8999876290       -9.6660371764
 H        -8.2247498712        4.8387037256       -8.8931196440
 H        -8.2812397847        6.3728926320       -8.1543627497
 H        -9.1358388719        6.0839849723       -9.7329803398
 Na       -8.9937802825        2.9470067918        0.2752251605
