117

 C       -10.1676090426        7.7996742860       -7.4212444343
 C       -10.6754327679        6.3946395165       -6.9214954118
 O       -11.3950567836        6.3407470278       -5.9874235465
 C       -10.2668463380        5.1229908272       -7.8891575936
 C        -9.9593426669        3.9307597893       -6.9328230955
 O        -8.7897606125        3.6744136093       -6.7575434814
 C       -11.1809167630        3.3914478737       -6.1578411820
 C       -10.8213044990        3.3731837234       -4.6282194149
 C       -11.9240528747        2.5616708087       -3.9102521001
 O       -12.3094670139        1.4711615147       -4.2388402122
 C       -12.6502161603        3.2822805031       -2.6684906169
 C       -11.7164040418        3.5618214825       -1.5695320378
 O       -10.6528826875        3.0158007557       -1.4044792275
 C       -12.3150155794        4.4252520749       -0.3186379484
 C       -13.1109628233        3.7100059583        0.7834701755
 C       -13.1902304350        4.6481319427        2.0399096049
 O       -12.8605007397        5.7776668017        1.8927430859
 C       -13.7567044804        4.0534545084        3.3640285922
 C       -12.9315391058        2.7363075677        3.5913198965
 O       -13.3477264524        1.6909380310        3.1172744371
 C       -11.6627139320        2.7316548397        4.3991291329
 C       -10.8582276326        1.4226374725        4.2212340548
 C       -10.0475333432        1.3040666834        2.9132423269
 O       -10.1132666676        2.1780920736        2.1193863376
 C        -9.0919552960        0.0445782214        2.6087139340
 C        -7.6476384297        0.7111665541        2.4787146680
 O        -7.4429274653        1.4474272359        1.5261832556
 C        -6.5081558064        0.5250043526        3.5501132788
 C        -5.7539876622        1.7651993787        3.8622746702
 C        -6.6530992599        2.8478145898        4.3178443226
 O        -7.8833363617        2.7583081232        4.3684164794
 C        -6.0951896716        4.2452858161        4.7418530242
 C        -6.0330223169        4.9890897898        3.3073094024
 O        -5.3925291260        4.5419746420        2.3565470245
 C        -6.7563453248        6.3583159973        3.1466422399
 C        -6.6036846766        6.7342741195        1.6803100673
 C        -7.1858212801        5.7648935953        0.6700153586
 O        -7.9457907205        4.9174346922        1.0640424637
 C        -6.9568764028        6.0158510427       -0.8395837273
 C        -6.6095121354        4.5116400758       -1.5221045092
 O        -7.4346463193        3.6758212477       -1.4275625242
 C        -5.2549130097        4.2603149410       -2.2178329975
 C        -8.3094702518        6.4812101100       -1.3961588512
 C        -5.8836739761        7.0100625845       -1.1370541037
 C        -7.0342545027        5.0180074674        5.6227666604
 C        -4.6547773417        4.1812781305        5.2640472320
 C        -9.3072620465       -1.1142238005        3.6257218687
 C        -9.4487199632       -0.4236048267        1.1600186732
 C       -13.6676145632        5.1217144159        4.4812005341
 C       -15.2347126676        3.7211414563        3.1059259010
 C       -13.3143992483        4.6343178779       -3.0919771064
 C       -13.7641116752        2.3437557166       -2.2562194935
 C       -11.4595935105        4.9442520868       -8.8754641024
 C        -9.0619946343        5.5490481814       -8.7922589552
 H        -9.0874135517        7.7862055841       -7.6402454958
 H       -10.3224790497        8.6238552381       -6.7122818304
 H       -10.7098646062        7.9571393948       -8.3363769805
 H       -11.4191431481        2.3794384780       -6.4511798313
 H       -12.0584234821        4.0211074003       -6.2808084890
 H       -10.8248957194        4.4010974466       -4.2207050126
 H        -9.9063350050        2.9504603878       -4.4481581919
 H       -12.9789251179        5.2620227263       -0.7359869895
 H       -11.4587751611        4.9806857822        0.1778283675
 H       -12.6470986304        2.7453170741        1.0497775597
 H       -14.1566115961        3.4546461083        0.4184122816
 H       -11.8517705388        2.8970375695        5.4672643870
 H       -11.0391670989        3.6014875030        4.1451329777
 H       -11.5384734940        0.5422562618        4.3017941652
 H       -10.1371087516        1.3874262050        5.0144563776
 H        -5.8532580723       -0.2603414222        3.1669526512
 H        -6.8626436873        0.0820434009        4.4570428911
 H        -5.2259262963        2.2598791630        2.9687238645
 H        -4.9779378005        1.6362140303        4.6595494877
 H        -6.2764177659        7.1009222468        3.7873112968
 H        -7.8047752110        6.3937811249        3.4234026543
 H        -5.6005459848        6.9518161154        1.4028344311
 H        -7.1540647574        7.7395020952        1.5062665445
 H        -5.4431632141        4.1166265240       -3.2893949078
 H        -4.8459858562        3.3850887416       -1.7370131425
 H        -4.5181775843        5.0372980288       -2.1428808711
 H        -9.1572118751        5.8252880085       -1.0713516822
 H        -8.3047208661        6.5066853928       -2.5180160488
 H        -8.5078663869        7.5102989649       -1.0377549394
 H        -5.5279297982        7.0652115736       -2.1063416713
 H        -4.9753458876        6.8193006000       -0.5238577800
 H        -6.2505450963        7.9704507831       -0.8281738557
 H        -7.9974129413        5.1129093529        5.2278496786
 H        -6.6292259568        5.9866063713        5.8793798241
 H        -7.2609506491        4.5089061741        6.5215669934
 H        -4.4065979168        5.2261519311        5.4854478066
 H        -3.9603854882        3.8930078063        4.4719806729
 H        -4.4740326675        3.4800698381        6.0385930568
 H        -9.8451693609       -0.6896762797        4.5257336939
 H        -8.4277418532       -1.5709584281        4.0294984014
 H        -9.9963395926       -1.8831719595        3.2729166555
 H       -10.4909609664       -0.4115701246        0.9312249748
 H        -9.1521761662       -1.4697817399        1.0806954416
 H        -9.0249054744        0.2174852648        0.3871110774
 H       -14.1467155441        4.6407686511        5.3952534294
 H       -14.2805799866        5.9785292416        4.3239264806
 H       -12.6983159144        5.4657463927        4.7409675982
 H       -15.6235084589        3.2659628910        3.9728875779
 H       -15.2943580352        2.9371079665        2.3510359712
 H       -15.8629202594        4.5759139440        2.9252096894
 H       -13.9214892939        4.3739921018       -4.0075059967
 H       -12.5322787803        5.2320553805       -3.4802167193
 H       -13.8613161433        5.1353867395       -2.2695237226
 H       -13.4246002734        1.3481204547       -2.0351236626
 H       -14.4217339332        2.2381526014       -3.1130634824
 H       -14.3824398646        2.5568442314       -1.4196100952
 H       -12.3962382527        4.8635035242       -8.3388766786
 H       -11.3201149653        4.1960597246       -9.6457107507
 H       -11.5529606276        5.9499895938       -9.2991136307
 H        -8.9370736175        4.9273113974       -9.6960882937
 H        -8.1339106820        5.4631487188       -8.2373085871
 H        -9.2236231236        6.5235682812       -9.2124291495
 Na       -9.0982503363        2.9852901521        0.2682288465
