117

 C        -9.6960287279        7.6326665325       -7.8739862848
 C       -10.4457567653        6.4015612973       -7.1528039117
 O       -11.0834241504        6.6379101605       -6.1797877266
 C       -10.4102392823        4.8673694432       -7.6987210278
 C       -10.1025899140        3.9751332962       -6.4458819298
 O        -8.9565353200        3.7019468172       -6.1236348359
 C       -11.3499646488        3.2877573528       -5.5648402189
 C       -10.8207473692        2.5488969056       -4.3455361825
 C       -12.0417045565        2.2614325071       -3.4702729534
 O       -12.5457217175        1.1753974174       -3.6552840304
 C       -12.6836378022        3.2200037374       -2.4543474398
 C       -11.6305530145        3.7355002163       -1.2881657225
 O       -10.6530257040        3.0171815340       -1.1323473037
 C       -11.9390682261        4.7941494229       -0.2085375045
 C       -12.9739358358        4.0578744194        0.6726889274
 C       -13.3155592737        5.0254694293        1.8873206245
 O       -13.1001104062        6.2062654299        1.8740798281
 C       -13.9798442658        4.2469437992        3.0975031833
 C       -13.1838889704        2.8717557809        3.2806965727
 O       -13.4555944914        1.8841717856        2.6274950245
 C       -12.0361417521        2.9325641363        4.2931137052
 C       -11.1479473974        1.6771094502        4.2597255555
 C       -10.2687383535        1.5605447244        2.9991496244
 O       -10.2684911960        2.4277966377        2.1363612208
 C        -9.2559146952        0.2114734908        2.7845711190
 C        -7.8711858369        0.7840891193        2.4606046437
 O        -7.6167990370        1.4094064584        1.4645166074
 C        -6.7510311612        0.4583494518        3.4230098423
 C        -5.8065403624        1.7229369077        3.5635407961
 C        -6.7661155644        2.8559030761        4.3067308068
 O        -7.9249059564        2.6347180219        4.5177542998
 C        -6.1024660258        4.2213698432        4.5236343871
 C        -5.8942884634        4.8781742622        3.1344316491
 O        -5.1889874064        4.3687048428        2.2703981176
 C        -6.5771184359        6.2451620380        2.8226925584
 C        -6.2283112518        6.6991048197        1.3703455012
 C        -7.0427440671        5.8920659341        0.3163134532
 O        -7.9140272042        5.1710492479        0.6793304669
 C        -6.7056649636        5.9641039129       -1.1737290635
 C        -6.2293847491        4.4429746224       -1.5640469488
 O        -6.6477300891        3.4815213605       -1.0231782943
 C        -4.9891889540        4.4504624944       -2.3980236111
 C        -7.9534846362        6.1432436095       -2.0043598031
 C        -5.6341798225        7.0478355439       -1.4629324172
 C        -7.0420701439        5.1005934182        5.4963959469
 C        -4.7545397584        4.1214954322        5.2858178361
 C        -9.2254423745       -0.7403423908        3.9411002861
 C        -9.7381168897       -0.6235353560        1.5061487757
 C       -13.9604300392        5.1804301175        4.3312885034
 C       -15.4740844738        3.8685345127        2.6552697378
 C       -13.1944633748        4.5421559812       -3.1395915046
 C       -13.7975585567        2.4164105706       -1.8112754057
 C       -11.8850942263        4.6560459807       -8.1898470980
 C        -9.2931290300        4.6612870024       -8.6972700840
 H        -8.6413763894        7.6574726977       -7.5298623277
 H       -10.1579688369        8.5545637154       -7.4840148771
 H        -9.8327459055        7.6603502575       -8.9447725225
 H       -11.7210901966        2.5371616730       -6.2559685080
 H       -12.1380153083        3.9894479600       -5.2443748913
 H        -9.9452552742        2.9562936067       -3.8786515146
 H       -10.4795416576        1.5705001181       -4.7237939313
 H       -12.2544730288        5.8146165675       -0.4966185664
 H       -10.9932372055        4.9495726195        0.3627272515
 H       -12.5836614556        3.0678924477        0.9457761544
 H       -13.8798667001        4.0052549965        0.0534086333
 H       -12.3697624511        3.1289091402        5.3400677571
 H       -11.3357780411        3.7411972248        3.9840680219
 H       -11.7869887949        0.7909908981        4.2407519719
 H       -10.4156312798        1.5962070874        5.0959316269
 H        -6.1976859640       -0.3687533119        2.9678506961
 H        -7.0855934161        0.1805228963        4.4190162471
 H        -5.4608189181        2.1610763002        2.6388945032
 H        -4.8895691526        1.5095893696        4.0912515944
 H        -6.1985132175        6.9659294357        3.5564061277
 H        -7.6866553220        6.1856382867        2.9325907773
 H        -5.1495665679        6.7740688661        1.1054060787
 H        -6.5611581194        7.6934445583        1.2916806548
 H        -4.0530289020        4.4004914631       -1.8480028908
 H        -4.9905810585        5.3000015581       -3.0203479111
 H        -5.1341024077        3.6155238414       -3.1181119431
 H        -8.7307479862        5.3683294782       -1.6616379766
 H        -7.8231011059        5.8056961781       -3.0432752609
 H        -8.4110251044        7.1739727406       -1.9711883006
 H        -5.5430164407        7.2380282810       -2.5647019611
 H        -4.7201376850        6.7466743715       -1.0253774906
 H        -5.9186079648        7.9873947791       -1.0317712318
 H        -7.9055148434        5.4217289167        5.0189197511
 H        -6.5836741851        6.0328269896        5.8245607192
 H        -7.2156659066        4.5630054527        6.4247764814
 H        -4.5582736129        4.9212778269        5.9030490855
 H        -3.9481047273        3.9354503496        4.6352424550
 H        -4.8822107855        3.3080644468        6.0277007668
 H        -8.8283960320       -0.4402290660        4.8461388793
 H        -8.6256566063       -1.5818045308        3.6461666680
 H       -10.2305781430       -1.2378372478        4.1493461812
 H       -10.8261195089       -0.7025827992        1.4719293950
 H        -9.2411645291       -1.5690534237        1.3863387207
 H        -9.3838271245       -0.1239509314        0.6542948625
 H       -14.2043050337        4.5929103104        5.2011543392
 H       -14.7356292539        5.9578723969        4.1617263456
 H       -12.9514610166        5.6792447490        4.5246589729
 H       -15.7767461533        2.9940873535        3.2714534170
 H       -15.5688032408        3.5890947195        1.6273459894
 H       -16.1145827826        4.6962565901        2.8869335756
 H       -13.6398615855        4.3150134483       -4.0841816930
 H       -12.2699244833        5.1648673855       -3.1762402876
 H       -13.9180871176        5.1300959215       -2.5356247335
 H       -13.3546809146        1.7294355484       -1.0993732594
 H       -14.3668565922        1.7833179825       -2.4411417852
 H       -14.5571140401        2.9975122132       -1.2640755337
 H       -12.5688955363        4.6627162529       -7.3228440461
 H       -11.9858638426        3.6780352591       -8.7182426418
 H       -12.1908471225        5.3900091389       -8.9062154255
 H        -9.3312143585        3.5952475720       -8.9688374212
 H        -8.3597321576        4.9415203869       -8.3413413337
 H        -9.5128607852        5.2874161074       -9.5992590610
 Na       -8.9111897745        3.0059730119        0.2739482985
