117

 C        -9.6485708864        7.4129446607       -7.9251082374
 C       -10.4871967691        6.4068228798       -7.1727654600
 O       -11.0492810109        6.6854391457       -6.1566881144
 C       -10.4645281973        4.8987436381       -7.6773117207
 C       -10.0710614348        3.9715068163       -6.3397459692
 O        -8.9481945533        3.7867468144       -6.0000032726
 C       -11.2019917633        3.2971864085       -5.6858409474
 C       -10.8115893203        2.5578516740       -4.3130144027
 C       -11.9952480917        2.1419677154       -3.4433844647
 O       -12.5537612588        1.0722288843       -3.5389183731
 C       -12.6197663497        3.2333595305       -2.3503924284
 C       -11.6247173830        3.5730310531       -1.2246545641
 O       -10.5774770647        2.9525367938       -1.2199065263
 C       -11.9045523134        4.7104573312       -0.2505287643
 C       -12.9647071516        4.2008370703        0.7304444426
 C       -13.2943054848        5.0624145534        1.8833565117
 O       -13.0589483250        6.2257805911        1.9978979893
 C       -14.0940951975        4.2430289714        3.1388051587
 C       -13.2514944239        3.0134019337        3.3795489656
 O       -13.4846025945        2.0295530798        2.6555932270
 C       -11.9765476092        2.9960209070        4.2290612937
 C       -11.1302528373        1.6536361233        4.2937311617
 C       -10.2799755097        1.5086683539        2.9878648100
 O       -10.3290840352        2.4257151752        2.2146355735
 C        -9.3404369306        0.2865606450        2.7111268723
 C        -7.8507704084        0.8051610521        2.3906953334
 O        -7.6112493648        1.4926293170        1.4124559354
 C        -6.6901623015        0.4777168307        3.3887691574
 C        -5.9396152416        1.7870133803        3.5816480269
 C        -6.7062116889        2.8286891954        4.2508193679
 O        -7.8771694658        2.5885067878        4.5992021570
 C        -6.0668428856        4.2366380844        4.5445343636
 C        -5.7679303554        4.8975117198        3.1173434314
 O        -5.0265189942        4.3606757656        2.2894440840
 C        -6.5936490935        6.2120039352        2.7841891182
 C        -6.2572841139        6.6337783526        1.3603519553
 C        -7.1314266485        5.9309413533        0.3256601904
 O        -8.0223573996        5.1758495309        0.7291148371
 C        -6.7260128986        5.8938075598       -1.1820037321
 C        -6.0845214632        4.4352764864       -1.4937891024
 O        -6.5753725541        3.4132285546       -1.0317373344
 C        -4.8581011906        4.3482222397       -2.4681855249
 C        -8.0100972571        6.0798566467       -2.1762997169
 C        -5.6678140610        6.9704720449       -1.5237435133
 C        -7.1026274606        5.0418243088        5.4086767281
 C        -4.7089732756        4.1632851283        5.2903510639
 C        -9.3207659915       -0.6661974906        3.8891343146
 C        -9.9059196923       -0.4975213008        1.4742629107
 C       -14.0966170978        5.2284343390        4.3106811239
 C       -15.4500353503        3.9132641597        2.5790678441
 C       -13.2453210458        4.5318098254       -3.1471228134
 C       -13.8604979831        2.4308261461       -1.7832541366
 C       -11.8636196990        4.6733068058       -8.2319239684
 C        -9.3842958371        4.4846061241       -8.6976310222
 H        -8.5819729693        7.0760370291       -7.8947417520
 H        -9.7199259527        8.4067158060       -7.4630188857
 H       -10.0557905708        7.4840603712       -8.9168195604
 H       -11.6841578715        2.7148270255       -6.4712712214
 H       -11.8353952772        4.1662835102       -5.3615965708
 H       -10.1422500938        3.2806050132       -3.6724397407
 H       -10.1495521094        1.7140227505       -4.4794468933
 H       -12.1143854325        5.6894610743       -0.6566821691
 H       -11.0153646909        4.8068563325        0.3244063622
 H       -12.6995257210        3.1924106760        1.0155520464
 H       -13.9485874955        4.2376961086        0.2274026763
 H       -12.2019548456        3.1740908536        5.2917754114
 H       -11.2678125036        3.7586570868        3.8789227632
 H       -11.8287242207        0.7673325779        4.3968537124
 H       -10.4447520411        1.6728955288        5.1141612393
 H        -5.9800697838       -0.2380455935        2.9142266511
 H        -7.0299680007        0.1491091609        4.3656559594
 H        -5.5454536727        2.2571125129        2.6893403477
 H        -5.0821861967        1.6573781201        4.1388125442
 H        -6.4270691775        6.9936349783        3.5410744148
 H        -7.6838589509        5.9454638701        2.7816821986
 H        -5.2942319869        6.3943588675        1.0471096658
 H        -6.3117627173        7.7514354023        1.3087850458
 H        -3.9412663689        3.9641066046       -1.9971872788
 H        -4.6060812952        5.2542174683       -3.0535286197
 H        -5.2464539665        3.6207812095       -3.1824901314
 H        -8.8778642920        5.4182842076       -1.8845715597
 H        -7.8771933931        5.8366624761       -3.2767244318
 H        -8.3417761362        7.1454337993       -2.0454580327
 H        -5.6700806473        7.1815617141       -2.5699536183
 H        -4.6854603052        6.6178748729       -1.0967530483
 H        -5.8643077316        7.9274088821       -1.0277049612
 H        -7.9596131141        5.2882633242        4.8215728690
 H        -6.6727940763        6.0484721442        5.6503707585
 H        -7.2480797818        4.6077423310        6.3877853952
 H        -4.3624441040        4.9961782213        5.8468816676
 H        -3.9891145237        3.8388932914        4.5855197397
 H        -4.8328879951        3.4263126505        6.0146528345
 H        -8.8956201576       -0.1463966681        4.8111971148
 H        -8.7083952000       -1.4940649424        3.7325806286
 H       -10.2652474320       -1.1041277274        4.1679230089
 H       -10.9678189278       -0.5028452761        1.5173825781
 H        -9.4949492386       -1.4995752632        1.4425652204
 H        -9.5416938357       -0.1082221559        0.5433769138
 H       -14.6510930952        4.6632912938        5.1694019089
 H       -14.6539959803        6.1287149050        4.0264457313
 H       -13.0962578616        5.4599706762        4.6906014387
 H       -15.7701071490        2.9489911071        2.9818760773
 H       -15.4445260667        3.8455184476        1.4552707148
 H       -16.1610442161        4.7121949239        2.8379355353
 H       -13.6095422232        4.1677663069       -4.1396278553
 H       -12.4831041526        5.2428452003       -3.2084548351
 H       -14.1143930380        5.0072347114       -2.6395901962
 H       -13.5349902813        1.6975070477       -1.0515409501
 H       -14.3088507385        1.7878111284       -2.5316092177
 H       -14.7000115778        2.9880637308       -1.3596842915
 H       -12.6119936829        4.6778847009       -7.4335975888
 H       -11.8799938082        3.6621538091       -8.6707989883
 H       -12.1169799874        5.3046427606       -9.0734697902
 H        -9.5930287850        3.5044463561       -9.1523247797
 H        -8.4097623628        4.5103863258       -8.2471004032
 H        -9.3838243654        5.2983805811       -9.4182325186
 Na       -8.9089116409        3.1133187990        0.3084899157
