117

 C        -9.4752352317        7.2016432530       -8.0274792231
 C       -10.3470817835        6.2298642557       -7.2330113801
 O       -10.9118339657        6.6076840344       -6.2101130470
 C       -10.4339543340        4.7564360265       -7.6823034779
 C       -10.0907217393        4.0052715880       -6.3424065063
 O        -9.0030803348        4.0135820952       -5.7952454252
 C       -11.2380373830        3.2567608125       -5.5852294822
 C       -10.8526899871        2.8068641022       -4.1566621586
 C       -12.0500447753        2.0879831388       -3.3800945695
 O       -12.2402783792        0.9083099489       -3.5540108719
 C       -12.7769578003        3.0836466833       -2.3643470359
 C       -11.6760995924        3.3691428602       -1.2550336347
 O       -10.5612568485        2.8775735870       -1.3663918439
 C       -11.8042343010        4.5566079453       -0.2460406712
 C       -13.0928184372        4.3930501750        0.5665129739
 C       -13.1702657613        5.1937725178        2.0043242867
 O       -12.7833328690        6.3235157516        2.1796930239
 C       -14.0164056907        4.3234503277        3.1255112133
 C       -13.2400279225        3.0303077658        3.4459525659
 O       -13.5361531864        1.9953571712        2.9196771409
 C       -12.0454263538        3.1352679845        4.3226854361
 C       -11.1927291898        1.8495862332        4.1211163097
 C       -10.2409101924        1.8001287171        2.9477859583
 O       -10.2781657983        2.6248679825        2.0350834570
 C        -9.4355856801        0.5075852443        2.7653889234
 C        -7.9882370944        0.8467142200        2.3734085806
 O        -7.8371414927        1.5096027046        1.3786045871
 C        -6.7270158060        0.4765833229        3.1800674314
 C        -5.8353175561        1.7056337085        3.5449869514
 C        -6.6898186450        2.8526764016        4.3119029373
 O        -7.7744822337        2.5208733309        4.6661733469
 C        -6.1205309914        4.2697607619        4.5331548203
 C        -5.6988970601        4.9242381715        3.1312964420
 O        -4.7777438068        4.4864565801        2.4727882334
 C        -6.5003470849        6.1946884310        2.7495593774
 C        -6.2630847770        6.5579907916        1.2732394879
 C        -7.1541754933        5.7937956186        0.1881538741
 O        -8.2275147530        5.3908329423        0.5312948577
 C        -6.7051362081        5.7972203746       -1.2537773768
 C        -6.0861208447        4.2227674319       -1.4380927957
 O        -6.6983442351        3.3114551616       -1.0098408496
 C        -4.9212044910        4.0609721350       -2.3994702314
 C        -7.9513121038        5.7833339720       -2.1419804789
 C        -5.7591891323        6.9574986698       -1.5538617848
 C        -7.1054695521        5.1416910279        5.3627354302
 C        -4.7421013251        4.0911943196        5.2506981472
 C        -9.5484887677       -0.5427402956        3.8405476381
 C       -10.0525378372       -0.1249050652        1.4536223884
 C       -14.2695406257        5.1967888307        4.3780758546
 C       -15.4321260699        3.9674436878        2.5998391240
 C       -13.1662800626        4.4288762451       -3.1123006926
 C       -13.9586554986        2.3938397688       -1.6935255304
 C       -11.9146099579        4.4888854088       -8.1032241765
 C        -9.4121184503        4.3914847838       -8.7598677526
 H        -8.5138941990        6.7671281798       -8.1642484561
 H        -9.3672737983        8.0306334023       -7.3458810926
 H        -9.9401955979        7.5783904481       -8.9465494052
 H       -11.4920488452        2.3716173241       -6.1982300049
 H       -12.1103440892        3.8874793756       -5.5376871409
 H       -10.5012315793        3.6023931917       -3.6094975940
 H        -9.9703859732        2.1272742557       -4.2038262722
 H       -11.9798126893        5.4307738755       -0.8838551625
 H       -11.0033335492        4.8124999515        0.4812551205
 H       -13.0645199632        3.3370963105        0.9262878564
 H       -14.0297618794        4.6493888594        0.0706592789
 H       -12.1921819112        3.1322932678        5.3868596562
 H       -11.4564541596        3.9825171926        3.9979177058
 H       -11.8402295199        1.0185481012        3.9830777832
 H       -10.5631370070        1.6528905016        5.0298466996
 H        -6.1793559139       -0.1456697032        2.4876641753
 H        -7.0265311403       -0.0395838540        4.1000932212
 H        -5.3914668880        2.1625108781        2.6329275709
 H        -4.8701691443        1.4415811606        4.1314109159
 H        -6.0908819088        6.9631813657        3.4094038515
 H        -7.5389786129        6.0484598228        2.9723909029
 H        -5.1339350268        6.3208748026        1.0700637843
 H        -6.3607161376        7.6295354654        1.1689196144
 H        -4.0640999165        3.6424749789       -1.8524745498
 H        -4.6210798669        5.0348311368       -2.7291917886
 H        -5.1824993449        3.4038697795       -3.2692222137
 H        -8.5670758087        4.9413209893       -1.9182559077
 H        -7.6634767340        5.7415344795       -3.1413424231
 H        -8.5628399293        6.6377879614       -2.0170011240
 H        -5.4976988262        7.0540970297       -2.6456188839
 H        -5.0079629465        6.9512789643       -0.8228054131
 H        -6.3131875607        7.8909645286       -1.3623013023
 H        -8.1151931133        5.0659417935        4.9122460232
 H        -6.8917928172        6.2041628406        5.4886614503
 H        -7.0025972056        4.6997016847        6.3758095523
 H        -4.3511393104        5.1188854980        5.2104351399
 H        -4.0226247722        3.4338522595        4.7130968965
 H        -4.7850631364        3.8930886458        6.3916005341
 H        -9.4297123402       -0.2145286057        4.8060577340
 H        -8.9084887056       -1.4571031015        3.7123284473
 H       -10.5831627389       -0.9883054683        3.7837466006
 H       -11.0767494446       -0.5078117481        1.6857939659
 H        -9.4442575235       -0.9281875396        1.0167860984
 H       -10.0891674447        0.6350141660        0.6650050227
 H       -15.1013475685        4.8509152250        4.8500071980
 H       -14.4264245792        6.1906228955        3.9848266522
 H       -13.4471642009        5.1976360022        5.0874912237
 H       -15.8215626041        3.2274017023        3.3409657961
 H       -15.4220660678        3.5654995428        1.6044256679
 H       -16.0539686951        4.8649533724        2.5193531459
 H       -14.0571383522        4.3041754007       -3.6682428318
 H       -12.2673579517        4.7014059892       -3.7335110121
 H       -13.3706910977        5.2182360921       -2.4212425245
 H       -13.6302385355        1.6328697872       -0.9701541639
 H       -14.5626839980        1.7967724182       -2.3797051309
 H       -14.6718039086        3.0875737331       -1.2296154818
 H       -12.5309514613        5.0966453560       -7.4438647083
 H       -12.4186307382        3.5382614049       -8.1582246097
 H       -11.9286194671        4.8938639509       -9.1078547400
 H        -9.5368178391        3.3235666028       -8.9201461468
 H        -8.4164577274        4.5369987472       -8.3310153374
 H        -9.4758202572        5.0852684073       -9.6245204980
 Na       -8.7626849915        3.1839276543        0.2343920867
