117

 C        -9.3476289528        7.1254937732       -8.0330240999
 C       -10.2096279587        6.1878202789       -7.2398791558
 O       -10.8221156952        6.6749260718       -6.2795008894
 C       -10.4023229791        4.6580868965       -7.6189402133
 C       -10.1660881194        3.8671247202       -6.3101183770
 O        -9.0864253791        4.1599747757       -5.8011519963
 C       -11.1916040004        3.0598862867       -5.6074889475
 C       -10.7375700370        2.8528430532       -4.1580238459
 C       -11.8573269462        2.2267110772       -3.3315429243
 O       -12.1715017787        1.0626900618       -3.4601977902
 C       -12.7160645744        3.1393717740       -2.2490170082
 C       -11.6590289576        3.3851354689       -1.0614487229
 O       -10.6035311119        2.8338489318       -1.1458426981
 C       -11.9098525867        4.4658523206       -0.0245437410
 C       -13.3717141436        4.5487150575        0.4646652332
 C       -13.2282937002        5.1685051708        1.9397887316
 O       -12.3895048696        5.9685602892        2.3170171682
 C       -14.0218358980        4.4436852286        3.0839719310
 C       -13.2961115897        3.1245624137        3.5027357214
 O       -13.7189328498        2.0364178821        3.1487996046
 C       -12.0146976127        3.2938933072        4.2845144078
 C       -11.0276645598        2.0981576799        4.2919237202
 C       -10.2591833755        1.9966051928        2.9406630488
 O       -10.1935239648        3.0063800557        2.2725861759
 C        -9.5119709842        0.6556622772        2.5012069602
 C        -7.9945322881        0.9387602163        2.2464112602
 O        -7.6242461661        1.6201448006        1.2875389984
 C        -6.9151330007        0.5352121441        3.2238584918
 C        -5.9465723720        1.6920377816        3.4684125347
 C        -6.6384044789        2.7644478021        4.3142395572
 O        -7.8264667921        2.6267877771        4.6702868726
 C        -6.0428438017        4.2280239442        4.5893135766
 C        -5.7049931515        4.8922094077        3.1207284510
 O        -4.7333268212        4.5500434802        2.5212593654
 C        -6.5603893476        6.1311774845        2.6182868148
 C        -6.2223173244        6.4288337314        1.1451811454
 C        -7.1920750733        5.8221960825        0.2400005267
 O        -8.3334625517        5.5933515660        0.6893735315
 C        -6.7992881963        5.5999149695       -1.3398054425
 C        -6.1967521364        4.1800083342       -1.4680014783
 O        -6.8313287077        3.2287015370       -0.9832402148
 C        -4.8304679042        3.8487635757       -2.1998931651
 C        -8.0088201172        5.6168431985       -2.2572336811
 C        -5.7596059281        6.6364125567       -1.8788730882
 C        -7.0536891663        5.0051402292        5.3952214061
 C        -4.7261705523        4.0340194843        5.3822540851
 C        -9.6483554001       -0.2826140935        3.7039335193
 C       -10.1135657486        0.0204770387        1.2636977703
 C       -14.1524782953        5.3962102708        4.3282759029
 C       -15.4686188765        4.0765961965        2.4804353769
 C       -13.3605847917        4.3348434441       -2.9340714145
 C       -13.7957952919        2.1551704041       -1.8197212211
 C       -11.8214303184        4.4485464965       -8.1448946064
 C        -9.4530883731        3.9937610171       -8.7543229790
 H        -8.3054496834        6.7960866839       -7.8942262269
 H        -9.5265288044        8.1621299081       -7.7650139338
 H        -9.6424280859        6.9557626822       -9.0698413919
 H       -11.2069684083        2.0424123516       -5.9874218262
 H       -12.2091037899        3.4562995475       -5.7843808975
 H       -10.2397990245        3.7135876188       -3.6092580755
 H        -9.9911270106        2.1021970560       -4.2648299638
 H       -11.7441246103        5.5059279384       -0.3591066187
 H       -11.3485663069        4.3721723797        0.8886333510
 H       -13.8335345551        3.5936560732        0.6790611344
 H       -14.0606170869        5.1959305605       -0.1068760471
 H       -12.2654864823        3.3221825027        5.3559569353
 H       -11.4286454333        4.1767216797        3.9875918161
 H       -11.5137182327        1.1406079960        4.6505771579
 H       -10.2364764666        2.3196965044        4.9798580271
 H        -6.3694642692       -0.2546816387        2.6870990401
 H        -7.3537909409        0.2122264471        4.1542509048
 H        -5.5555277901        2.1250060449        2.5477602915
 H        -5.0694642338        1.4123242202        3.9683185453
 H        -6.2374981357        6.9623449558        3.2637561611
 H        -7.6355214047        5.8950994765        2.7854521717
 H        -5.2262707690        6.2146231075        0.9670252066
 H        -6.4213972820        7.5267468135        0.9764469493
 H        -4.1230102596        3.3042181975       -1.5941557108
 H        -4.3454531845        4.7759458386       -2.6081551479
 H        -5.1084419619        3.1706432717       -2.9579645486
 H        -8.6912557859        4.7907476819       -2.0815843744
 H        -7.6631776831        5.7448782894       -3.3217299064
 H        -8.6660662474        6.4858794402       -2.0980209374
 H        -5.7774067050        6.3724264504       -2.8631135743
 H        -4.7867246236        6.5088200825       -1.3736845250
 H        -6.0333969360        7.6703415435       -1.8512877789
 H        -7.9633267313        5.2391280097        4.8183173784
 H        -6.4933123939        5.9153580281        5.5545698405
 H        -7.3190446143        4.5838098551        6.3424034357
 H        -4.2226638401        4.9768033309        5.6952417260
 H        -4.0557836297        3.3837600846        4.8221072737
 H        -4.9747466637        3.5106998523        6.2497611437
 H        -9.1405347496        0.1431558202        4.6449536195
 H        -9.2348187122       -1.2564256857        3.5180486261
 H       -10.6314398801       -0.4477203714        4.0063618122
 H       -11.1057176762       -0.2984371432        1.5250258157
 H        -9.5909809769       -0.9226144307        1.0123655060
 H       -10.1538457952        0.6705583654        0.3587286925
 H       -14.5746152675        4.8145163590        5.2056051599
 H       -14.7121855443        6.2759616150        4.0057195873
 H       -13.1483363437        5.6979154791        4.5503813408
 H       -16.2456102484        4.2379697756        3.1385947921
 H       -15.4806174849        3.0756298561        2.0745519465
 H       -15.5400483476        4.6524456917        1.5926742462
 H       -14.1473519261        3.9090250983       -3.6306545692
 H       -12.6928646720        4.9433927432       -3.4722784021
 H       -13.9860846921        4.8634719756       -2.1965463246
 H       -13.4025512841        1.3343135893       -1.2224343132
 H       -14.2785455521        1.6653049826       -2.6767683817
 H       -14.5937976958        2.6504026870       -1.2840114987
 H       -12.6052207094        4.6090924459       -7.4186908950
 H       -11.8758901130        3.3623671307       -8.2214301334
 H       -12.0584493446        4.8251611304       -9.1500334685
 H        -9.4084680007        2.9268237681       -8.6078581864
 H        -8.4462337170        4.4261818519       -8.6937844831
 H        -9.8764573477        4.3053594962       -9.6565030502
 Na       -8.8601161664        3.1696138013       -0.0231962532
