117

 C        -8.6396048193        6.4990022483       -8.3281403868
 C        -9.9144123589        5.8311319956       -7.8049733084
 O       -10.8822742168        6.4209423324       -7.2696301442
 C       -10.0651025625        4.3073946032       -7.8555601854
 C       -10.0629899600        3.9105569565       -6.2485915035
 O        -8.9798348592        4.0456095505       -5.6643935619
 C       -11.3869446923        3.6607020141       -5.5794176841
 C       -11.1326556272        3.0914309027       -4.1383806254
 C       -12.2218913154        2.1717054256       -3.6634880753
 O       -12.4545914019        1.1219149211       -4.1964729873
 C       -12.9927207867        2.6042360085       -2.3153920180
 C       -12.0654962866        3.3685560884       -1.3654457462
 O       -10.8687384756        3.1005822397       -1.3212660297
 C       -12.6547696228        4.5191713301       -0.4982360712
 C       -13.2948110577        4.1050558477        0.8600357341
 C       -13.1756076808        5.2923469962        1.9462233239
 O       -12.4324589028        6.2356673643        1.7485307614
 C       -13.7426881626        5.0860046041        3.3894934120
 C       -12.9752486756        3.8314516421        3.8454565298
 O       -13.4068116679        2.7319392318        3.5287295289
 C       -11.6109640478        3.9307886891        4.5644551960
 C       -10.9855524541        2.5754237356        4.4781169851
 C       -10.5644893904        2.1713956547        3.0881828911
 O       -10.6724273178        2.8980975857        2.1174753254
 C        -9.7426718563        0.7182466721        2.9066035364
 C        -8.2793119219        1.1802085549        2.7246094076
 O        -7.9438350410        1.9170189569        1.8162720235
 C        -7.2049310002        0.7456140131        3.7921867291
 C        -6.1038080416        1.8099448637        3.9179189758
 C        -6.7069644272        3.1589733489        4.2516746613
 O        -7.9026281131        3.1973943896        4.5363097775
 C        -5.7501862008        4.3328988324        4.4489888246
 C        -5.4617398289        4.7712537504        2.9663116324
 O        -4.8649623133        4.0436934738        2.2163868985
 C        -6.0771512941        6.0965587747        2.4246217755
 C        -5.9027168952        6.3340509287        0.9075587705
 C        -6.9902677236        5.6880588904        0.0950556732
 O        -8.0345975410        5.2409114843        0.5212204099
 C        -6.7183195794        5.2917548669       -1.4801100707
 C        -6.5378035396        3.6743753236       -1.4230969545
 O        -7.4718544593        2.9191851943       -1.1037337643
 C        -5.1628203660        3.0246303101       -1.7019238624
 C        -8.0270029873        5.5550643069       -2.3236146585
 C        -5.4511804561        5.9953767137       -1.9659029733
 C        -6.4529077492        5.3715303631        5.3558894713
 C        -4.3692481869        3.9323813412        5.0396577706
 C       -10.0996976544       -0.2876790765        3.9887812382
 C       -10.1598302716        0.1699178167        1.5001440130
 C       -13.5419306967        6.3018283995        4.3282579991
 C       -15.2458274614        4.7642291715        3.0692760481
 C       -14.1175283602        3.5217130168       -2.8430612932
 C       -13.4815873053        1.3732390021       -1.5234462439
 C       -11.3992756929        3.9816029859       -8.5753649602
 C        -8.8100675116        3.7419578271       -8.5555188662
 H        -7.9262512577        6.4942641334       -7.4756723176
 H        -8.8413146082        7.5245583550       -8.5667214726
 H        -8.2842946657        5.9648542871       -9.1676414348
 H       -11.8492266719        2.8887322954       -6.1759064499
 H       -12.0673904674        4.5162302065       -5.6685716436
 H       -10.8456332530        3.9541028061       -3.4600280256
 H       -10.2123841667        2.5029706179       -4.2367562369
 H       -13.3649733479        5.0032041618       -1.1538915220
 H       -11.8786744204        5.2871870612       -0.3619464927
 H       -12.7399476737        3.2206840351        1.2528247718
 H       -14.2747038507        3.6436060063        0.6538988522
 H       -11.7418118989        4.1895141391        5.6389002473
 H       -10.9374507767        4.7175491441        4.2101839939
 H       -11.5806448244        1.7720001208        4.8967370624
 H        -9.9987554432        2.5125464637        5.0302446561
 H        -6.8054398410       -0.1969479185        3.3631945677
 H        -7.6699245449        0.4293861944        4.7200329807
 H        -5.4871124795        1.8683369128        3.0547782043
 H        -5.5203076714        1.4994273361        4.7446206951
 H        -5.6885608851        6.9506095112        3.0113206177
 H        -7.1378794731        6.0059739458        2.7597932738
 H        -4.9401865105        5.8633160695        0.6400442581
 H        -5.8963380884        7.3459720058        0.6892014588
 H        -4.4191258100        3.6205569020       -1.1889512569
 H        -4.9377906850        2.8735943702       -2.7644241054
 H        -5.1627623604        2.0420456824       -1.2797297815
 H        -8.8706356899        5.1171340692       -1.8319101106
 H        -8.0274355479        5.1039309029       -3.3068285754
 H        -8.1348256521        6.5956358919       -2.4166065310
 H        -5.0476831304        5.5736911862       -2.8546411465
 H        -4.6549243787        5.9670046899       -1.2119057482
 H        -5.7136123840        7.0190543005       -2.2053140452
 H        -7.4672467426        5.3540795027        5.1208926831
 H        -6.0393066276        6.3706832342        5.2228269370
 H        -6.2092354460        5.0765026375        6.3445015839
 H        -3.8397767760        4.8539252707        5.3874740740
 H        -3.7173005776        3.4292008050        4.2795449267
 H        -4.4210215935        3.3920591032        5.9826122710
 H        -9.6837064245        0.1016444028        4.9754320715
 H        -9.6520103406       -1.1963832784        3.8188965014
 H       -11.1720227378       -0.4288637524        3.9758634609
 H       -11.1857336233       -0.2159012979        1.4580855448
 H        -9.4032998262       -0.5927018996        1.2685200600
 H        -9.9968364846        0.9455397728        0.7360402334
 H       -13.2528161465        5.9366900502        5.3619138382
 H       -14.3746013235        6.9442317390        4.4157690735
 H       -12.7186017277        6.8175366825        3.9051228507
 H       -15.9797801475        4.7572019141        3.8655861128
 H       -15.2608697327        3.7805419081        2.6201278477
 H       -15.5700348454        5.5206522571        2.3828168274
 H       -14.7079367949        3.1346198616       -3.6825946824
 H       -13.6638338893        4.4364850394       -3.1178980793
 H       -14.8712184582        3.8025992063       -2.0859093905
 H       -12.6574400820        0.7875600569       -1.1198086395
 H       -14.0905079620        0.8086637174       -2.2104074992
 H       -14.1458605040        1.6531204941       -0.6745438771
 H       -12.2244473134        4.6274337118       -8.2439696868
 H       -11.7144890119        2.9523722242       -8.2737957642
 H       -11.4333405103        3.9438685781       -9.6296684577
 H        -8.7997382183        2.6733243063       -8.3915817509
 H        -7.9724999528        4.1767413470       -8.0863231105
 H        -8.8180221966        4.0310731233       -9.6181357085
 Na       -9.2213950691        3.3022322469        0.4781638678
