117

 C        -8.5951345125        6.6735790217       -8.2549804511
 C        -9.9192501756        5.9370540809       -7.8510894067
 O       -10.8923744402        6.5182230700       -7.5816655100
 C        -9.9503052229        4.3097748632       -7.9000240481
 C       -10.0282329115        3.8529866408       -6.4093538196
 O        -9.0625874902        3.8443119415       -5.6932030694
 C       -11.4398471625        3.5081571959       -5.7590299246
 C       -11.2613257990        3.2997398488       -4.2456806138
 C       -12.2635159389        2.2514850743       -3.6940590144
 O       -12.5923669636        1.2515249787       -4.3121999945
 C       -13.0259396960        2.5849792386       -2.3501595827
 C       -12.0904284871        3.4082758263       -1.2608184807
 O       -10.9168048152        3.0348855589       -1.2103012431
 C       -12.5671738325        4.5914690980       -0.4263975164
 C       -13.2114748288        4.1811233323        0.8677380929
 C       -13.1584037693        5.3707350607        1.8007339922
 O       -12.5613156678        6.3788372175        1.4939603126
 C       -13.6575412497        5.1436647744        3.2698424037
 C       -12.9806898915        3.8481745531        3.7984014049
 O       -13.5045676876        2.7811127626        3.5507989473
 C       -11.6903095323        3.9381035651        4.6004009591
 C       -10.9001904192        2.6344488224        4.5677910381
 C       -10.7396954662        2.0362857858        3.0927920469
 O       -10.9798000889        2.7685150614        2.1380836175
 C        -9.8322012209        0.7175869620        2.9709372292
 C        -8.3169554160        1.2119306960        2.7982117361
 O        -8.0058237302        2.0439807627        1.9344026901
 C        -7.2129166674        0.7410702091        3.7929608985
 C        -6.1480807430        1.8381046077        3.9204900195
 C        -6.6738023412        3.1255486026        4.3613666747
 O        -7.8157021286        3.3238841579        4.6962486971
 C        -5.6282165698        4.3309698339        4.4296310066
 C        -5.5039181377        4.8822322131        2.9020145691
 O        -4.9912614950        4.1215824355        2.0707573435
 C        -5.8816674018        6.2955277582        2.4217528342
 C        -5.8415809945        6.4054902601        0.9003555334
 C        -6.9482492404        5.5409447105        0.1750584239
 O        -8.0178087508        5.3390377639        0.8190922123
 C        -6.6704610653        5.0694158382       -1.3157916503
 C        -6.5887045156        3.4529650460       -1.3755363989
 O        -7.4965231413        2.7822649196       -0.9246948469
 C        -5.3001466288        2.8699019374       -1.9331749625
 C        -7.8894846290        5.4863103439       -2.0782725442
 C        -5.4224054470        5.6960150372       -2.0299655644
 C        -6.1804162859        5.5796858625        5.2586934809
 C        -4.2490527177        3.9112152015        4.9317949454
 C        -9.9919216707       -0.2489121840        4.1783562453
 C       -10.1704916865       -0.0684259115        1.6520549588
 C       -13.4142858748        6.5108192087        4.0608002895
 C       -15.1993095827        4.9410650827        3.4854183797
 C       -14.3117993345        3.4111966030       -2.6659836033
 C       -13.4596736107        1.2486702521       -1.7727301190
 C       -11.1424844676        3.7611051597       -8.7322800154
 C        -8.6830660351        3.4484046452       -8.3196279500
 H        -7.8337974664        6.4500388893       -7.5358714895
 H        -8.7708792076        7.7617334182       -8.1982828555
 H        -8.3442221164        6.3555850680       -9.3023920533
 H       -11.9699352137        2.5544452949       -6.0998085911
 H       -12.1478609001        4.3430345637       -5.9619628895
 H       -11.0835763733        4.2142248054       -3.7581918773
 H       -10.2939577954        2.7346833479       -4.2030128029
 H       -13.0454352846        5.3604762821       -1.0377327552
 H       -11.6644961699        5.0946344966       -0.0582960993
 H       -12.6982852716        3.3709743693        1.3899421588
 H       -14.2290560690        3.8097421929        0.7611711458
 H       -11.8662634406        4.2711282861        5.6130226112
 H       -11.1066056688        4.7947527381        4.2030186316
 H       -11.2825593784        1.8627067114        5.2629172394
 H        -9.8802471810        2.7768000448        4.8516657479
 H        -6.7320054860       -0.1936765170        3.5490631376
 H        -7.7679919391        0.5432538535        4.7169519456
 H        -5.6603835010        2.0257615813        2.9325022895
 H        -5.4320454884        1.3267848720        4.6370730417
 H        -5.1651883760        6.9789277236        2.8964476884
 H        -6.8220333468        6.6616237701        2.8081587382
 H        -4.8425250921        6.1971789559        0.5217580999
 H        -6.0571696531        7.5298482713        0.7627568691
 H        -4.5101174178        3.0902946639       -1.2153736580
 H        -5.1331109431        3.3406985182       -2.8682868355
 H        -5.3695541704        1.8031587778       -2.2462753537
 H        -8.8427213165        5.0101703204       -1.6808641421
 H        -7.8202805288        5.0997705325       -3.1259755130
 H        -7.9240494827        6.6298843714       -2.1295270317
 H        -5.6421702554        5.7655606568       -3.1196093774
 H        -4.4900643888        5.2641463867       -1.7712353363
 H        -5.3173939900        6.7543595739       -1.7908869883
 H        -7.1094912962        5.8728520659        4.7549433002
 H        -5.4655174944        6.3840914088        5.1460524012
 H        -6.1793189978        5.3680929638        6.3408407191
 H        -3.5585728021        4.6777483202        4.9102910173
 H        -3.9013914045        3.2186344563        4.2534301914
 H        -4.1909935856        3.6399351621        5.9772320698
 H        -9.9424476310        0.2664570880        5.0748410119
 H        -9.1520957990       -1.0252122234        4.1662800668
 H       -10.9559300072       -0.7931271711        4.0626563639
 H       -11.2034306010       -0.3820038578        1.7876690806
 H        -9.5001793793       -0.8832602617        1.4346931785
 H       -10.0999807167        0.6130801748        0.8250130282
 H       -13.4599463833        6.4414264402        5.1245416183
 H       -14.2723543665        7.1721137189        3.7106853945
 H       -12.4719318330        7.0340759914        3.6818623269
 H       -15.3652879832        4.7222316536        4.5384597239
 H       -15.6038052934        4.0533874464        3.0355500884
 H       -15.7509141820        5.8364371424        3.1845766832
 H       -14.9291587551        2.7486351639       -3.2317048958
 H       -14.1297857191        4.3582680285       -3.2580889454
 H       -14.9324849533        3.7277504137       -1.8656550463
 H       -12.5320060918        0.7130306582       -1.4874583411
 H       -14.0251910312        0.6902297298       -2.5333093495
 H       -14.1256797409        1.3764704711       -0.9194638567
 H       -12.1237450798        3.9953280995       -8.3704129770
 H       -11.1882574196        2.7348870874       -8.9633962522
 H       -11.0356681783        4.2318447528       -9.7456309150
 H        -9.0981663450        2.4778262932       -8.2022476308
 H        -7.7871684034        3.5339488926       -7.7101399587
 H        -8.4884465667        3.6184539033       -9.3692637303
 Na       -9.3229326170        3.3195296034        0.3644592620
