117

 C        -8.5384427634        6.6307863557       -8.2483448169
 C        -9.8485157887        5.7922208390       -7.9803998468
 O       -10.8918427939        6.4213581568       -7.7552915602
 C        -9.9082046994        4.2260026582       -7.9026549699
 C       -10.0768770884        3.8643459790       -6.3766354549
 O        -9.0709170160        3.7802394466       -5.6706931947
 C       -11.4001882653        3.4388043870       -5.7501948699
 C       -11.3875437156        3.3943652363       -4.2218600681
 C       -12.4044670240        2.3703430696       -3.7312599196
 O       -12.6092029975        1.3835426842       -4.3678760495
 C       -13.1196139993        2.5483114289       -2.3022719620
 C       -12.1545734646        3.3591817146       -1.3886560306
 O       -11.0450762843        2.8013221976       -1.2430052638
 C       -12.4746182847        4.5724230171       -0.5962815736
 C       -13.3502230492        4.2350507077        0.7092875910
 C       -13.2729046787        5.4239857145        1.8162042796
 O       -12.7239462013        6.4660471989        1.5156011795
 C       -13.6981196976        5.2423819022        3.3136275724
 C       -12.9773941188        3.8770854186        3.7771555875
 O       -13.5617283489        2.8243184508        3.6268843101
 C       -11.6372055347        3.8998858604        4.4960753421
 C       -10.9494974626        2.5909205964        4.5336177980
 C       -10.6135911822        2.0556753577        3.2023149814
 O       -10.9702569436        2.6164361022        2.1726910519
 C        -9.8519834656        0.7269418094        3.0781615876
 C        -8.3783501817        1.3552102980        2.9067014474
 O        -8.1652536939        2.0387659208        1.9406650531
 C        -7.2366860814        0.9260533557        3.8446767527
 C        -6.0259031625        1.9273553383        3.9427217384
 C        -6.6245948735        3.2775097808        4.3920025908
 O        -7.7502147099        3.3529680348        4.8102055404
 C        -5.5557722034        4.4507075113        4.2922120742
 C        -5.4111664370        4.8744522702        2.8361663030
 O        -5.0669667496        4.0455088424        1.9869945060
 C        -5.8270415706        6.3119755877        2.4556110953
 C        -5.7903748050        6.4447966575        0.9717439371
 C        -6.8052396035        5.5360394988        0.2549561132
 O        -7.8728126561        5.2166448947        0.8057339649
 C        -6.6857831870        5.0269379524       -1.2362865438
 C        -6.5906139435        3.4374122357       -1.2871197679
 O        -7.4556313777        2.6598404471       -0.8820656347
 C        -5.4636253468        2.7494234814       -2.0502862302
 C        -8.0193926381        5.3851084924       -2.0336363804
 C        -5.4415683534        5.6243168449       -1.8099360077
 C        -6.1267239839        5.5862896962        5.2323412843
 C        -4.1737785253        3.9467702533        4.7592078531
 C        -9.9590474328       -0.2368823461        4.2583922604
 C       -10.2355532395        0.0102365518        1.7541427655
 C       -13.1584546365        6.5320579775        4.0010216515
 C       -15.1867609811        5.0061138654        3.4856855505
 C       -14.3893207754        3.4454775331       -2.6051882013
 C       -13.3406611878        1.1887735314       -1.6671255220
 C       -11.0474514215        3.8025338813       -8.8303172884
 C        -8.5524679707        3.5769826080       -8.3700795248
 H        -7.7121686189        6.2984611686       -7.5957827418
 H        -8.7805940945        7.6329184812       -7.9067020013
 H        -8.3277501237        6.6495632570       -9.3188941628
 H       -11.6237830590        2.3909015896       -6.0548461816
 H       -12.2259694336        4.0381362346       -6.0731434221
 H       -11.5493281829        4.3712677808       -3.8857447560
 H       -10.4091243694        3.1057251653       -3.8404584841
 H       -13.0500515895        5.2582280359       -1.2146829377
 H       -11.5834578171        5.1859809086       -0.2769165920
 H       -13.1085653886        3.3572333291        1.3214759600
 H       -14.3591376606        4.0594879191        0.3494185397
 H       -11.7940054429        4.2309082931        5.5345280434
 H       -11.0051761651        4.7201844116        4.1085670321
 H       -11.5097173640        1.8192778436        5.0002733248
 H        -9.9935720055        2.6279663221        5.0847929446
 H        -6.8811444759       -0.0159590263        3.4175537600
 H        -7.6956340559        0.6077471233        4.7790229569
 H        -5.4833482922        1.9282465477        2.9735401922
 H        -5.4123870318        1.3855303684        4.7354602036
 H        -5.1940217241        7.0619026025        2.9805452166
 H        -6.8028404926        6.5671618893        2.8285251371
 H        -4.7686366809        6.0827828244        0.5872271642
 H        -5.8747582189        7.5253293204        0.7138165232
 H        -4.6264081017        2.6566068402       -1.3305036198
 H        -5.1593780930        3.1365032292       -3.0122460472
 H        -5.8526554652        1.7543528787       -2.3476333412
 H        -8.8493112545        4.8233742244       -1.5351979834
 H        -8.0436606917        5.0680749206       -3.0898463612
 H        -8.1909595442        6.4574709504       -1.9764186450
 H        -5.5003345785        5.6000731875       -2.9295608331
 H        -4.5456028636        5.1724961270       -1.3629542223
 H        -5.2924756819        6.6996051685       -1.6077860654
 H        -6.9703619042        5.9876349777        4.7589843241
 H        -5.3202276118        6.3850135593        5.3469088482
 H        -6.2617728886        5.1650026471        6.2547503662
 H        -3.3595888337        4.6267067768        4.7710315196
 H        -3.8660321576        3.1389666765        4.1146058239
 H        -4.2806700294        3.6913304828        5.8120102434
 H        -9.5699476470        0.2327661857        5.1917457814
 H        -9.4903280322       -1.1354756592        4.0637819491
 H       -11.0601410867       -0.4391194765        4.3896440633
 H       -11.3202274526       -0.1514312677        1.7741976671
 H        -9.6720645749       -0.8682866058        1.5072630026
 H        -9.9791189771        0.7236296665        1.0118594325
 H       -13.5017543475        6.6050297394        5.0616306260
 H       -13.5266533544        7.3876489508        3.4702966693
 H       -12.0728514028        6.5730192266        3.9222501382
 H       -15.3461755641        4.7497267819        4.5723893353
 H       -15.4596556961        4.0537703104        3.0305378863
 H       -15.8512484890        5.7991453031        3.1127885506
 H       -15.0072998681        2.9168745417       -3.3210503096
 H       -14.0393441975        4.3845650523       -3.0968688047
 H       -15.0813850872        3.7792591775       -1.8435910538
 H       -12.3972278146        0.6957676443       -1.3649721230
 H       -13.8573800961        0.6164492509       -2.4264867894
 H       -14.0791723487        1.2743084525       -0.8258008926
 H       -12.0307944450        4.0877596641       -8.4701161674
 H       -11.1780545227        2.7182617024       -8.9694838848
 H       -10.9155172177        4.1799316195       -9.8257317059
 H        -8.6511501455        2.4865949834       -8.4643498441
 H        -7.6862614165        3.8404681954       -7.8207303573
 H        -8.5725764101        4.0498371699       -9.4113590262
 Na       -9.3479860134        3.3641908199        0.3505779689
