117

 C        -8.5299690856        6.6318776281       -7.9868636961
 C        -9.8121554843        5.7061890220       -8.0552769920
 O       -10.8999183386        6.2604389408       -8.0149156652
 C        -9.6901367952        4.1223777105       -7.9397129172
 C        -9.9437242657        3.9399936941       -6.4051623317
 O        -9.0168194510        3.8069913669       -5.6261558241
 C       -11.3446210401        3.4440594988       -5.9459420632
 C       -11.8512241343        3.6624081228       -4.4721248104
 C       -12.5803904662        2.4711236699       -3.8840307497
 O       -12.8721086490        1.4999738532       -4.4928913541
 C       -13.2022741454        2.6050172075       -2.3075119141
 C       -12.2127678231        3.2511099521       -1.2369255621
 O       -11.0847756081        2.7529760364       -1.0293709166
 C       -12.5017905618        4.5480585762       -0.5049184560
 C       -13.4512678634        4.4042605255        0.7089301783
 C       -13.2908035280        5.6249295742        1.6496216584
 O       -13.0003596684        6.7094025420        1.1614547024
 C       -13.5627060422        5.3709642469        3.1540848319
 C       -13.0294358453        3.9886347241        3.7545737063
 O       -13.7611734308        3.0288284670        3.6208490377
 C       -11.6778512295        3.9245763982        4.5849530606
 C       -11.1408352701        2.5315771377        4.6393925020
 C       -10.6501602587        2.0863594118        3.2252384326
 O       -10.8585986937        2.8228733459        2.2922327082
 C        -9.7799575315        0.7590261448        3.1278480112
 C        -8.3722168692        1.3030363368        3.0374765585
 O        -8.1024588122        2.0078311896        2.0891598068
 C        -7.1360407907        0.9767990177        3.9988096223
 C        -6.0052312389        1.9600805533        3.8879361518
 C        -6.3712298220        3.2777166878        4.4930107369
 O        -7.4090062179        3.4953996749        5.0214219828
 C        -5.3430414792        4.5422800980        4.3787068776
 C        -5.3801222044        4.9605054845        2.8450527521
 O        -5.2334003452        4.1041402036        1.9437854628
 C        -5.7666369359        6.3121760738        2.4196520502
 C        -5.9050427450        6.3662235989        0.9302270954
 C        -6.8361182354        5.2893653518        0.2156429941
 O        -7.7395323987        4.7547312027        0.9049678142
 C        -6.7294571145        4.8307997127       -1.2601004913
 C        -6.7043212110        3.1948743394       -1.2948589570
 O        -7.5548865419        2.5476882560       -0.7029682687
 C        -5.6553298875        2.4890345949       -2.1627620976
 C        -8.0310800670        5.4077224259       -2.0306164663
 C        -5.4460354783        5.3522732036       -1.9732808484
 C        -5.6987263226        5.7680831624        5.2668708594
 C        -3.8884091484        4.1031162803        4.6251885796
 C        -9.9839020487       -0.0953670100        4.3591395145
 C       -10.1893852425       -0.1158055105        1.9004170235
 C       -13.0584155870        6.5495069663        3.9215818847
 C       -15.1149876354        5.3964639639        3.0987172310
 C       -14.5563038217        3.3876811130       -2.3827434976
 C       -13.4873777338        1.0947643625       -1.9206530407
 C       -10.8304247839        3.3689034498       -8.7863806538
 C        -8.3161443613        3.5505154100       -8.4278719255
 H        -7.9123785301        6.4708686655       -7.1316538465
 H        -8.9556739845        7.6128370521       -7.8666447419
 H        -8.0415696152        6.6201457446       -8.9744957367
 H       -11.4526376951        2.3276425979       -6.1598693157
 H       -12.0559173449        4.0199796893       -6.5541780060
 H       -12.4338645410        4.5671178749       -4.4702948090
 H       -10.9395251186        3.9237562993       -3.8068770140
 H       -12.8173140742        5.3445384684       -1.1515658202
 H       -11.6050575004        4.9341965237       -0.0361020927
 H       -13.3326640229        3.4990117480        1.3283585174
 H       -14.5258300299        4.4726204980        0.4763390306
 H       -11.8534987636        4.2725278761        5.5957955064
 H       -10.9684052732        4.6340419030        4.1123826213
 H       -11.8759747002        1.7813936330        5.0308629366
 H       -10.2556483092        2.5067289690        5.2807850955
 H        -6.9281113375       -0.0456435013        3.7200377983
 H        -7.4940786754        0.9260525397        5.0389162148
 H        -5.8702854268        2.0959943329        2.8410300156
 H        -5.1007291995        1.4763612613        4.3230288966
 H        -5.0820741788        7.1143673103        2.7881213913
 H        -6.6474621362        6.5737118569        2.9674217062
 H        -4.9183317584        6.5017819855        0.5254379160
 H        -6.3744281548        7.3369478456        0.6541840445
 H        -4.6534115998        2.8042691826       -1.9209099082
 H        -5.9009244563        2.7658628372       -3.1420719954
 H        -5.7881241904        1.3903211736       -2.2001496517
 H        -8.9229827880        5.0016149380       -1.5130135840
 H        -7.9726865771        5.0407952014       -3.0340894950
 H        -8.1379386202        6.4858398318       -2.0681947111
 H        -5.4954828833        5.1819051401       -3.0719871920
 H        -4.5473823844        4.9597866697       -1.6236797571
 H        -5.3129206399        6.3836532092       -1.7741010987
 H        -6.7546450958        5.8536692333        5.2122885267
 H        -5.1921898255        6.6533908159        4.8843010230
 H        -5.4917533293        5.5288109199        6.3206911550
 H        -3.2533683888        4.9643116437        4.6343086623
 H        -3.5496738141        3.5324108655        3.7658757839
 H        -3.6556234567        3.5241373887        5.5848107870
 H        -9.9998521321        0.4127627272        5.2955924052
 H        -9.2085015114       -0.8384112178        4.2676503629
 H       -10.9789548163       -0.6282695094        4.3122520710
 H       -11.2369510176       -0.4775514987        2.0414389251
 H        -9.5242991470       -0.9743053229        1.7538650775
 H       -10.0360438946        0.5125491474        1.0431685210
 H       -13.1008468144        6.4379828123        4.9965800755
 H       -13.6472337496        7.4565480914        3.6746649218
 H       -12.0352168378        6.8650954754        3.5894641322
 H       -15.4915382896        5.3582145165        4.1239393278
 H       -15.5428195930        4.6230180741        2.5203532661
 H       -15.4163154721        6.2769501152        2.5746205220
 H       -15.2415167302        3.0632866572       -3.1243182985
 H       -14.3154087922        4.4651952062       -2.6674968762
 H       -15.0502552773        3.4671704935       -1.4476632971
 H       -12.6009322723        0.4497674444       -1.8897660977
 H       -14.2717640275        0.6753210013       -2.5434185929
 H       -13.9081756811        1.2120729348       -0.9203250215
 H       -11.7905399724        3.8810831727       -8.7950780316
 H       -11.0796243149        2.3744773906       -8.4746214230
 H       -10.5602163560        3.3240679561       -9.8665652989
 H        -8.5956373213        2.5536238600       -8.6526760193
 H        -7.7000212432        3.4931583202       -7.5827742051
 H        -7.8668983314        3.9646861807       -9.3524459427
 Na       -9.4500429672        3.2319794910        0.6314913980
