117

 C        -8.7127106990        6.5333310231       -7.6636378587
 C        -9.7806884125        5.4681590487       -8.0369453712
 O       -10.9420347619        5.8668661418       -8.2935664034
 C        -9.5904117033        3.9213331437       -7.7894305421
 C       -10.0832625400        3.8995826147       -6.2911786546
 O        -9.2111003860        4.0183441197       -5.4159603780
 C       -11.5878586921        3.8027085629       -5.9034188501
 C       -11.8521376341        3.7205685358       -4.3574273850
 C       -12.6890704790        2.5802598826       -3.9001999565
 O       -13.0883907276        1.6818577976       -4.6285320033
 C       -13.1857759877        2.6160023866       -2.4119900810
 C       -12.1483961700        3.3129598124       -1.4613543503
 O       -11.1624430158        2.6056143270       -1.1751398363
 C       -12.3506132906        4.6324115423       -0.6897185094
 C       -12.9723834862        4.3747888137        0.7378033118
 C       -13.1709014547        5.7000898780        1.5122682895
 O       -12.8502546070        6.7324373693        1.0106755180
 C       -13.6905200877        5.6051727062        3.1036513459
 C       -13.2705122709        4.1702140814        3.5633724916
 O       -13.8416117867        3.1533191085        3.2239352467
 C       -12.0251856077        4.0853053150        4.4936870982
 C       -11.5683437252        2.6637866591        4.6115314165
 C       -10.6379224075        2.2874607713        3.4257809402
 O       -10.6837205592        3.0087524124        2.4640469799
 C        -9.7186221604        0.9978489060        3.4785512750
 C        -8.2280779265        1.4896338718        3.2016217494
 O        -7.8436395046        1.9724972221        2.1939945039
 C        -7.2096557168        1.1740418373        4.3654156985
 C        -5.8714343485        1.9582016049        4.2401493594
 C        -6.1420498818        3.3797273688        4.7277207763
 O        -7.1023951096        3.7343577465        5.3671483659
 C        -5.0470694568        4.4425599738        4.3054109374
 C        -5.3897810649        4.7871068063        2.7387975013
 O        -4.8236451751        4.0342763510        1.9411927214
 C        -6.0651107396        6.0255674860        2.3118164072
 C        -6.1244428408        6.0705413653        0.7771724189
 C        -7.0494583922        5.0882697022        0.1177701346
 O        -8.0611819046        4.8035097647        0.7518133197
 C        -6.8575925198        4.6165744268       -1.3710396386
 C        -6.9174242464        2.9614213974       -1.5043043285
 O        -7.8701270137        2.3435847622       -1.1634014443
 C        -5.6879707595        2.3214081363       -2.1362038998
 C        -8.1920636237        5.0624830306       -2.1442605694
 C        -5.6043602218        5.1781944631       -1.9786873359
 C        -5.2746492493        5.7721647623        5.0143537471
 C        -3.6170926437        3.9381359433        4.4086109690
 C        -9.9200283254        0.1808170544        4.7651918838
 C       -10.1568260978        0.1984725298        2.1662053298
 C       -12.9492602477        6.8017022076        3.8052062024
 C       -15.2280390105        5.7051903369        3.0577931593
 C       -14.5000473866        3.5342248405       -2.4959272745
 C       -13.5395621650        1.2030297882       -1.8917456225
 C       -10.4008149832        2.9979901738       -8.6251196493
 C        -8.1374138874        3.4384588062       -7.8310980487
 H        -8.3726888036        6.3345615576       -6.6522731395
 H        -9.1968888259        7.4860261985       -7.7263903311
 H        -7.8971887802        6.4910203806       -8.3838130219
 H       -12.1296939641        2.9822531728       -6.3527748699
 H       -12.0043199154        4.7234245256       -6.2084080686
 H       -12.2296227303        4.6564561045       -4.0022057599
 H       -10.8713645876        3.6058312135       -3.7707247593
 H       -13.0587299590        5.1921935137       -1.2800351354
 H       -11.3822766042        5.1716254434       -0.7384714866
 H       -12.2618264062        3.7029127682        1.2857539011
 H       -13.9417129189        3.8623306899        0.6128608977
 H       -12.4418046774        4.3601961682        5.4577901195
 H       -11.2340253873        4.7854136861        4.1585877141
 H       -12.4023349007        1.9207785136        4.5800896791
 H       -11.0033687842        2.5824054661        5.5512229986
 H        -7.0800084019        0.0867236957        4.4008504403
 H        -7.7071397968        1.4530517697        5.3089924903
 H        -5.5207222516        1.9767627155        3.2651720155
 H        -5.1550125254        1.3812958670        4.8226211021
 H        -5.4915099778        6.9395338320        2.6895607952
 H        -7.0877691641        6.1905549919        2.6313924138
 H        -5.1528681189        6.0192719409        0.3324229842
 H        -6.4513119729        7.0588988495        0.5117155956
 H        -4.7122669885        2.6674365854       -1.7800317864
 H        -5.7201792961        2.5123053245       -3.1949519392
 H        -5.8007423461        1.2332006217       -2.0068418619
 H        -9.0117497617        4.5389291338       -1.7138079124
 H        -8.0363064092        4.7602371170       -3.1369001179
 H        -8.4244284818        6.0710425258       -2.1314452377
 H        -5.4550439118        4.9598813404       -3.0663988256
 H        -4.6868275843        4.7967643685       -1.5885221409
 H        -5.6642369264        6.2494200308       -1.8466005212
 H        -6.1883783651        6.1684844765        4.7823802044
 H        -4.4277205119        6.4353196785        4.7740985750
 H        -5.4130119965        5.5952129832        6.0810471777
 H        -3.0512108214        4.8410687559        4.1584918570
 H        -3.4105774101        3.1515374593        3.6422819447
 H        -3.2849447690        3.3381338138        5.2990670294
 H        -9.6875794782        0.6995374428        5.7140547252
 H        -9.4285485723       -0.7185407569        4.6961324632
 H       -11.0257433333       -0.0304436027        4.8157808994
 H       -11.2376230542       -0.0770140806        2.2429538278
 H        -9.6478108565       -0.7455324520        1.9808340413
 H       -10.0357866379        0.8948984323        1.3598286535
 H       -13.3277637392        7.0980673625        4.7969250819
 H       -13.0708629450        7.6835269722        3.2480841578
 H       -11.9272976102        6.5975586809        4.0528830006
 H       -15.6608412992        5.8855287381        4.0949270815
 H       -15.5756592667        4.8013078199        2.5784086752
 H       -15.6509222295        6.4769448071        2.3974929209
 H       -15.2594301017        3.2745790409       -3.2029296256
 H       -14.1451305469        4.5174616257       -2.9337846301
 H       -14.9139956264        3.7455026394       -1.5349968685
 H       -12.5895308298        0.7058781734       -1.6536531233
 H       -13.9658738693        0.6495606306       -2.7150286638
 H       -14.2103261944        1.2911970352       -1.0103370451
 H       -11.4193257302        3.3849635680       -8.6161554476
 H       -10.4001284438        1.9258131547       -8.5504905657
 H       -10.1829346922        3.2456285765       -9.6651457209
 H        -8.1601753933        2.3526374652       -7.6918662672
 H        -7.5914269458        3.9257102020       -7.0687100425
 H        -7.7017213500        3.4962419764       -8.8886313488
 Na       -9.4887674575        2.9158838426        0.4604408849
