117

 C        -8.9094991239        6.5639560347       -7.8190931940
 C        -9.7488685903        5.3413502423       -8.0724189852
 O       -10.7157512166        5.4934833917       -8.7907934808
 C        -9.5220095170        3.9358683744       -7.3913617733
 C       -10.0109496761        3.8253770258       -5.9385276316
 O        -9.1666325311        3.8582795409       -5.0603424265
 C       -11.5201070713        3.7050161215       -5.6844378520
 C       -11.8422277608        3.9213627251       -4.1727313284
 C       -12.7612487534        2.7558509183       -3.7960209873
 O       -13.0516682794        1.8168481932       -4.5037443417
 C       -13.4577738599        2.7275724772       -2.3355155162
 C       -12.2499191048        3.2417320397       -1.4929272162
 O       -11.3000697207        2.4571142515       -1.2153892879
 C       -12.2707496076        4.6289533414       -0.8880486779
 C       -12.9016431753        4.5647330625        0.5350149473
 C       -12.8564766544        5.8499258791        1.3190283114
 O       -12.5235185827        6.9247236577        0.9350138951
 C       -13.6586710353        5.7331226166        2.7657902305
 C       -13.3575566810        4.4383486389        3.3935738139
 O       -13.9500221192        3.4620247796        3.0067935546
 C       -12.3122697333        4.2907235883        4.6129545178
 C       -11.7028376944        2.8165859006        4.7570271079
 C       -10.5920297811        2.4212403685        3.7211950031
 O       -10.4020920240        3.1517012323        2.7376906646
 C        -9.7614577442        1.1186429478        3.7638108393
 C        -8.2954056326        1.5639779836        3.3902137948
 O        -7.9190769642        1.9115984290        2.2838331713
 C        -7.3115758369        1.3970017454        4.5760379008
 C        -5.9809841135        2.1245697078        4.2530548477
 C        -5.9665729749        3.5499730424        4.7802725965
 O        -6.9166176909        4.0565917716        5.3856032807
 C        -4.7803305993        4.4576646488        4.2142703502
 C        -5.1943596862        4.4732467551        2.6539521420
 O        -4.5657476550        3.7704356028        1.8998611450
 C        -6.2452527320        5.4154064565        2.1757271224
 C        -6.2262140409        5.6776678007        0.6151762338
 C        -7.3136249180        5.0035732672       -0.1167480739
 O        -8.3899912398        4.7198093227        0.4086024038
 C        -7.0430752052        4.5022227094       -1.5622905068
 C        -6.8941114647        2.9454471786       -1.5388223367
 O        -7.7768228610        2.2459607940       -1.1541789411
 C        -5.5815431318        2.2254147180       -1.9401849560
 C        -8.3546700475        4.7536457533       -2.2886476469
 C        -5.9536693578        5.1834104416       -2.3497322811
 C        -4.7503893133        5.9548390444        4.7123674080
 C        -3.4119798124        3.6633455580        4.3232548946
 C        -9.9269087591        0.3470062345        5.0688092816
 C       -10.2294693213        0.3160297808        2.5253345956
 C       -13.2458228583        6.8943969417        3.5748610377
 C       -15.2546717948        5.8374284033        2.5762454277
 C       -14.6274768952        3.6691030644       -2.4376450205
 C       -13.6438052988        1.2753467081       -1.8935783676
 C       -10.2896483453        2.7900947430       -8.1977462273
 C        -8.0088361528        3.6048485503       -7.3999232277
 H        -8.4669966871        6.4545296165       -6.8091599648
 H        -9.5565813067        7.4189090186       -7.9948958934
 H        -8.0807546388        6.6130128156       -8.5279336522
 H       -11.9357311227        2.7560666356       -5.9616341242
 H       -11.9854267974        4.4271401965       -6.2550903668
 H       -12.2291316459        4.8382695641       -3.8639977990
 H       -10.8636230440        3.8019089713       -3.6728379366
 H       -12.8317454096        5.2358593342       -1.5840197342
 H       -11.2015571397        4.9835281742       -0.7918120346
 H       -12.1379194362        3.9442809940        1.0791499535
 H       -13.8857632273        4.0711730006        0.5770848951
 H       -12.9587485394        4.4528722866        5.4703854156
 H       -11.5586423168        5.0857715959        4.4608496106
 H       -12.5423461971        2.1298247750        4.5500657992
 H       -11.3142044198        2.6123785819        5.7681401240
 H        -7.1977904386        0.3148411108        4.7093939729
 H        -7.8076907821        1.8246398246        5.4735865991
 H        -5.8291191999        2.1180393713        3.2149396680
 H        -5.1290018905        1.5538430422        4.6338678704
 H        -6.3832164032        6.4322639059        2.6854321305
 H        -7.1213519994        4.7890696779        2.3654189805
 H        -5.2820936051        5.2442693823        0.2801638472
 H        -6.2082134432        6.6783430058        0.2592521451
 H        -4.9475599415        1.8849904588       -1.0882383425
 H        -4.9918119752        2.8973756463       -2.5837625226
 H        -5.8621985715        1.2716237222       -2.3816160307
 H        -9.0720731203        4.0336408963       -1.8388239537
 H        -8.2041889031        4.4110583286       -3.3432026203
 H        -8.7672406085        5.7738766974       -2.2443653755
 H        -5.9494963971        4.8836517723       -3.4266568301
 H        -4.9090417823        5.0643725369       -1.9713509508
 H        -6.1999374404        6.2383290807       -2.5136035901
 H        -5.7797023718        6.2336734155        4.7264077338
 H        -4.2118676551        6.7337718610        4.0946094750
 H        -4.3299243290        5.9723981974        5.7329395414
 H        -2.5599732743        4.2744620199        3.9726147139
 H        -3.4904514015        2.7553650865        3.6897888215
 H        -3.1121329945        3.2925553434        5.3068747526
 H        -9.6138536473        0.9086657465        5.9687208875
 H        -9.3083133048       -0.4675110299        5.0836861933
 H       -10.9378665247       -0.0494139642        5.1882696514
 H       -11.3126573753        0.1515089257        2.4660139441
 H        -9.6828898419       -0.6037860059        2.4140220608
 H       -10.0453079018        0.9660098091        1.7012058210
 H       -13.3800974377        6.8378520915        4.6707117619
 H       -13.7272837974        7.7812937165        3.3149151012
 H       -12.2015773433        7.0354156328        3.5493591136
 H       -15.8862471577        5.7830531740        3.5092605487
 H       -15.6500612802        5.0818712986        1.8844152385
 H       -15.4937478420        6.8254125751        2.1730549997
 H       -15.4897440975        3.2778413391       -2.9718227372
 H       -14.3179737094        4.6474483786       -2.8574494393
 H       -14.9624215711        3.9053980421       -1.4381549155
 H       -12.7239764424        0.6897244445       -1.9502345513
 H       -14.3694141058        0.8629813984       -2.5900598029
 H       -14.0961443928        1.3127538098       -0.8689891899
 H       -11.3085501092        3.0615617684       -8.5226801297
 H       -10.3529240826        1.8183640159       -7.6556211527
 H        -9.7541741990        2.5855406995       -9.1026421119
 H        -8.0346405670        2.5154690113       -7.1662137088
 H        -7.5044567885        4.0359306930       -6.5378495949
 H        -7.4137495857        3.8395062012       -8.3462875569
 Na       -9.5184841351        2.6006150539        0.3750625381
