117

 C        -9.0214651506        6.4207241884       -7.7153467250
 C        -9.7918521664        5.1328383946       -8.0862794321
 O       -10.7370274846        5.1796641172       -8.8783675817
 C        -9.3810330417        3.7466747405       -7.5089287129
 C       -10.0100161864        3.6653938965       -6.0956020214
 O        -9.2751780191        3.7267379743       -5.1042173690
 C       -11.5690225465        3.8497732892       -5.8730835651
 C       -12.0274706609        3.9572035578       -4.3744009091
 C       -12.8056041742        2.7179209756       -3.8421002080
 O       -13.0427066357        1.7877376287       -4.5893263411
 C       -13.2898596797        2.6986831855       -2.2988766701
 C       -12.1573079626        3.1682352178       -1.2670307033
 O       -11.4787742754        2.3073750096       -0.7428768534
 C       -12.0678738297        4.6300467347       -0.7753212016
 C       -12.8225546817        4.5539002047        0.5488819558
 C       -12.7677593167        5.8781774763        1.4018484708
 O       -12.1773762173        6.8634365988        1.0748045741
 C       -13.7201897902        5.8841115147        2.6673947359
 C       -13.3696004151        4.6046504537        3.3793125638
 O       -13.8619800800        3.5405344869        3.1150796718
 C       -12.2057528427        4.5917244242        4.4566908195
 C       -11.6720285861        3.1170193771        4.7522457358
 C       -10.8666920681        2.5358667611        3.5286894793
 O       -10.8124873327        3.1123674466        2.4649227407
 C       -10.0220761882        1.1993180507        3.8043635463
 C        -8.4674535878        1.5628030185        3.4361920946
 O        -8.0042404145        1.8464360139        2.3526183918
 C        -7.5371367628        1.4609112780        4.6215606385
 C        -6.1442311016        2.0711440424        4.3906741950
 C        -5.8157217811        3.5928380678        4.7186311052
 O        -6.6401908978        4.2927651485        5.2716383311
 C        -4.5589507805        4.2877870179        4.0609283678
 C        -4.8700766409        4.4576365212        2.4832843778
 O        -4.2746501320        3.8426672619        1.6114204682
 C        -5.9953726288        5.4381402156        2.0723340159
 C        -6.2242739959        5.5832174552        0.5148171579
 C        -7.3544232771        4.8191374433       -0.1156816909
 O        -8.3740595452        4.6668214627        0.5477714341
 C        -7.2203259029        4.4102397355       -1.5790357188
 C        -6.9021530291        2.7929705193       -1.3962967985
 O        -7.6888542152        2.0478847103       -0.8753294014
 C        -5.5458164115        2.3513606657       -1.9335688687
 C        -8.5823031713        4.6518872251       -2.3180924566
 C        -6.1536312272        5.1988940631       -2.3594433437
 C        -4.6682648765        5.7213564515        4.6661856147
 C        -3.1664169212        3.6337198299        4.2863363497
 C       -10.2390583378        0.7732278586        5.2539620962
 C       -10.5142363805        0.1355877033        2.7411440574
 C       -13.4883096413        7.0676775127        3.7192828040
 C       -15.2119907324        5.9573487689        2.2552738222
 C       -14.5204111579        3.7143164378       -2.2367428993
 C       -13.8322417461        1.3105030408       -2.0105208272
 C        -9.9584619167        2.5944878836       -8.4556309994
 C        -7.8229370486        3.6764240561       -7.4192233986
 H        -9.2603415698        6.6804546810       -6.7030571394
 H        -9.2897110428        7.1663313520       -8.4326085205
 H        -7.9373336081        6.2476907146       -7.7070761418
 H       -12.2262050282        3.1041511728       -6.4417530702
 H       -11.8744001392        4.8493273882       -6.2991473404
 H       -12.6709020472        4.8853086368       -4.2637898453
 H       -11.1415308837        4.1254671927       -3.7487801437
 H       -12.4894271599        5.4591408955       -1.3588451611
 H       -11.0426487460        4.9291306114       -0.5076837247
 H       -12.4440599758        3.7188675575        1.1245236955
 H       -13.8630873028        4.4456629001        0.3367401611
 H       -12.7225133669        4.9827636660        5.3164327108
 H       -11.3550507438        5.2249391902        4.1505170251
 H       -12.4133230317        2.3222568879        4.9361629251
 H       -11.0694643036        3.1941190899        5.6164956870
 H        -7.5481419042        0.3865649356        4.7721834877
 H        -7.9551926229        1.9674343705        5.5073881365
 H        -5.8295110479        1.9283925217        3.3211703207
 H        -5.3458168033        1.4312195827        4.9204600107
 H        -5.9149325003        6.4764553141        2.4119714339
 H        -6.9586202046        5.0722174665        2.3500674208
 H        -5.3066750465        5.2251696845        0.0483404325
 H        -6.3466892257        6.6687898961        0.1509925863
 H        -4.6648264998        2.7413916771       -1.4411375887
 H        -5.5324270102        2.6303218571       -2.9521928476
 H        -5.4803073576        1.2825759696       -1.7445109731
 H        -9.2510715944        3.8402701265       -2.0380322911
 H        -8.5150416872        4.6553903811       -3.4009075006
 H        -8.9502850337        5.5800747650       -1.9599779539
 H        -6.2326895550        4.8550009280       -3.4139975724
 H        -5.1857057386        5.0768864330       -1.9719538494
 H        -6.2431443331        6.2709390250       -2.3583933252
 H        -5.5423548040        6.2037737220        4.4090055077
 H        -3.9094441802        6.3694191598        4.1653206354
 H        -4.4390347499        5.7557495408        5.7470154658
 H        -2.3265840113        4.1600468881        3.9477081890
 H        -3.0968339028        2.6499301705        3.8680526748
 H        -3.0071822542        3.5937913233        5.3719452188
 H        -9.8050798219        1.4711340349        6.0049968001
 H        -9.9447873674       -0.1738022555        5.5113080218
 H       -11.3788743659        0.7471724383        5.4095355286
 H       -11.5046186862       -0.3212054050        2.9602418508
 H        -9.7425203401       -0.6122743508        2.5557692008
 H       -10.6802565506        0.6746570959        1.8294107025
 H       -14.2316951645        6.9596608259        4.5434348904
 H       -13.6509536120        8.1086922688        3.3916367766
 H       -12.5113391011        7.1870301765        4.2491581054
 H       -15.8533028377        6.2047032246        3.1097258568
 H       -15.6000998400        5.0323110402        1.9446747475
 H       -15.3785299901        6.7154404727        1.5251399388
 H       -15.3058722615        3.4651765773       -2.9115854039
 H       -14.1147733172        4.7191506893       -2.5546234264
 H       -14.9702163151        3.8034426847       -1.2748523593
 H       -12.9402392833        0.6737599510       -1.9670481532
 H       -14.4714290345        1.0623715498       -2.8435584774
 H       -14.4137532552        1.2626374199       -1.0689539512
 H       -11.0580644324        2.5662679788       -8.5058687854
 H        -9.6178341688        1.6264503687       -8.1223507524
 H        -9.5454654191        2.7389312954       -9.4766079698
 H        -7.4349219233        2.8869524628       -6.8362269053
 H        -7.3264006371        4.5386928828       -7.1764800426
 H        -7.5681526967        3.5966071388       -8.5016276102
 Na       -9.4417042174        2.7888997620        0.6477941890
