117

 C        -9.2394308693        6.2504218347       -7.6684164809
 C       -10.0204858042        4.9452262600       -8.1590272270
 O       -10.8895838812        4.8997815207       -9.0202274057
 C        -9.4103189197        3.6149390555       -7.5003880261
 C        -9.9418254096        3.5815678573       -6.0570690068
 O        -9.2287569909        3.3539257622       -5.1169294273
 C       -11.4312889040        3.7052555823       -5.8734975578
 C       -12.0162283081        3.8925254258       -4.5230771220
 C       -12.6235577302        2.6400262901       -3.9495093599
 O       -12.6211119496        1.5325495200       -4.4311181888
 C       -13.2766067653        2.8258918301       -2.4643682873
 C       -12.0469897195        3.1843050916       -1.4729216553
 O       -11.0447538360        2.4321142315       -1.3466565644
 C       -12.1428733035        4.5240262440       -0.7882421926
 C       -13.2499160210        4.8041699188        0.2483997576
 C       -12.8030097921        5.7377323687        1.3805358737
 O       -11.7098114609        6.2816242716        1.3052489826
 C       -13.7805194829        6.0437425345        2.5993843332
 C       -13.3054558366        4.9674008262        3.6151803647
 O       -14.1041824469        4.1005968977        3.9197293808
 C       -11.8997225102        5.0473887711        4.2684350821
 C       -11.5049703009        3.6725718951        4.7350528641
 C       -11.0640469628        2.7722144152        3.6106843582
 O       -11.2162774019        3.1405273735        2.4498197542
 C       -10.2174409193        1.4358455080        3.9726386370
 C        -8.6985981205        1.7373705354        3.5774439208
 O        -8.3894825841        2.0938472707        2.4928911462
 C        -7.5743839438        1.5487904118        4.6402164221
 C        -6.2009222879        2.1727220112        4.2978972816
 C        -6.0105563712        3.6826164944        4.4815207049
 O        -6.8159876007        4.4164524839        5.0211523064
 C        -4.5450449405        4.1966291425        3.9395386235
 C        -4.7119692363        4.5773813515        2.3619587541
 O        -4.2239151644        3.8304875075        1.5404365862
 C        -5.5262320225        5.7973603193        1.9437589150
 C        -5.9863262107        5.7485136170        0.5128046916
 C        -7.1851675183        4.8457496586        0.1196226238
 O        -7.9920777495        4.4703195801        0.9441881150
 C        -7.2484816619        4.2703476145       -1.4257411498
 C        -6.8924028227        2.7642846397       -1.2602279576
 O        -7.5887633407        2.0814966773       -0.5471501156
 C        -5.7306083011        2.1643137275       -2.0436010165
 C        -8.7059457581        4.4246640222       -1.8034256797
 C        -6.3619015735        4.9411117000       -2.5120625400
 C        -4.0345573290        5.3626262918        4.8285507661
 C        -3.5140657859        3.0102549078        3.8928360713
 C       -10.3390417073        0.8027488004        5.4021028102
 C       -10.7713048638        0.3926037797        3.0312272312
 C       -13.6607968520        7.4604813656        3.0926093054
 C       -15.3372163996        5.9315295812        2.2341411314
 C       -14.3204958693        3.8821864074       -2.5221409099
 C       -13.7127273277        1.3906116574       -1.8776150125
 C        -9.9644227022        2.3769827498       -8.2493177827
 C        -7.8251403736        3.5004942831       -7.6829052571
 H        -8.7767854646        6.1336863467       -6.6761653464
 H        -9.9075647401        7.1078652395       -7.6519221585
 H        -8.5326192768        6.4152380928       -8.4268113672
 H       -11.9885688291        2.8281626037       -6.3898548960
 H       -11.8060945080        4.5452446053       -6.4850479716
 H       -12.8239240579        4.5970866126       -4.5146840093
 H       -11.2066522661        4.2710444070       -3.8038709916
 H       -12.1385868964        5.1946459194       -1.6395511477
 H       -11.2178592802        4.9106986102       -0.3055184865
 H       -13.4526640766        3.8295916328        0.6754390324
 H       -14.1747800508        5.1726947020       -0.1745544088
 H       -12.0737029869        5.7068874161        5.1257749382
 H       -11.2057677065        5.6143117624        3.6440814184
 H       -12.2539993008        3.2607027007        5.3811807620
 H       -10.5974463862        3.7212776388        5.3407496015
 H        -7.3428817484        0.4850157230        4.7213873079
 H        -8.0052192769        1.8897891010        5.5879235925
 H        -5.8900269159        1.9282301157        3.2495763778
 H        -5.4033062780        1.5657028542        4.8635721434
 H        -5.0296642086        6.8189982295        2.0446254679
 H        -6.4405967846        5.8924295464        2.5201960655
 H        -5.0535701963        5.5799213051       -0.1239089062
 H        -6.3697687022        6.7467653348        0.2818225709
 H        -4.7848177628        2.6509183022       -2.0872115601
 H        -6.1871745615        2.0838847455       -3.0514357858
 H        -5.6816062082        1.1752546467       -1.6830797013
 H        -9.3261485023        4.0178984273       -1.0488191842
 H        -8.9044302290        3.9754995093       -2.7279010466
 H        -8.9110316206        5.4697137482       -1.8907566208
 H        -6.6623819182        4.4819613220       -3.3958862831
 H        -5.2831963698        4.6494623324       -2.4034648937
 H        -6.4724114318        6.0228077034       -2.5144827628
 H        -4.7272375254        6.2561731742        4.8296772303
 H        -3.1184216233        5.6849509438        4.3935951503
 H        -3.8849762720        5.2179785551        5.8600330673
 H        -2.4534823970        3.2949220447        3.7352577530
 H        -3.7159533725        2.3161071277        3.0654613018
 H        -3.5599318906        2.5171820997        4.8202950803
 H        -9.9058210463        1.4471809238        6.1845964205
 H        -9.8337878454       -0.2418420463        5.3925399425
 H       -11.3011927363        0.6178189678        5.7356453601
 H       -11.8330789416        0.2219127772        3.1099219132
 H       -10.2303598194       -0.5215488901        3.2353487295
 H       -10.4808009893        0.6130291089        1.9751400202
 H       -14.0114411379        7.5071617629        4.1621160697
 H       -14.3614879149        8.2210456431        2.6545961322
 H       -12.6868341331        7.9592952662        3.0366662633
 H       -16.0063441226        6.0380387717        3.0830535826
 H       -15.6870728338        5.0327993623        1.7108927949
 H       -15.5211895158        6.7429266477        1.5542575814
 H       -15.0538090127        3.8874556232       -3.3421147356
 H       -13.8784777240        4.8450909672       -2.5636206256
 H       -14.8414170708        3.7998103362       -1.5694078018
 H       -12.8020582436        0.8187406738       -1.8346247200
 H       -14.5300756855        0.9802056716       -2.4750136619
 H       -13.9903833570        1.5569056804       -0.8332564305
 H       -11.0161954182        2.4436289033       -8.5393788413
 H        -9.8246265038        1.4929288827       -7.5357554633
 H        -9.3643362600        2.1930676083       -9.1027272493
 H        -7.4382165234        2.5806083360       -7.2537261893
 H        -7.2664884288        4.3218952743       -7.2107937473
 H        -7.5438319762        3.4331200746       -8.6737874915
 Na       -9.5588227231        2.7116464953        0.7280637623
