117

 C       -11.9338202235        6.0573533249      -10.1022546607
 C       -12.5201366366        5.3419494859       -8.9598877317
 O       -12.5896695677        4.0967043936       -9.0130111484
 C       -13.1770231151        6.0992978908       -7.7031819400
 C       -12.2852239256        6.3581902368       -6.4925844664
 O       -12.7550605774        6.5860378779       -5.4335757424
 C       -10.7476774776        6.2910524766       -6.6541572852
 C       -10.1196015964        6.9342171482       -5.3325047044
 C        -9.0496788420        5.9243500129       -4.7622929901
 O        -8.5135701227        5.0780590216       -5.4663059611
 C        -9.0427565911        5.8399696498       -3.2115437082
 C       -10.5429590806        5.2616212877       -2.9258233777
 O       -11.4891356965        5.9601327176       -2.8908296983
 C       -10.5769623434        3.6785304848       -2.9747684071
 C       -11.7771275732        3.0359423725       -2.3857355868
 C       -11.5482000184        2.7502571779       -0.9413522124
 O       -10.3533599912        2.7920830488       -0.5234259562
 C       -12.7116837386        2.3315509334        0.0526074753
 C       -12.3938825702        3.0351200819        1.4355379094
 O       -11.5502433045        2.4772481295        2.1483857221
 C       -13.1286155051        4.3337790896        1.8892469283
 C       -12.4819723876        4.9535906020        3.1191296943
 C       -11.0500932653        5.3720715658        2.7954658617
 O       -10.6684457951        5.3435370261        1.6722278538
 C       -10.1645413886        5.9813356063        3.9332190829
 C        -9.4099921723        4.6404644711        4.5403781746
 O        -8.9354846320        3.8693660331        3.7463222133
 C        -9.2184453723        4.3941492352        6.0307917573
 C        -8.0963619284        3.3046477909        6.2567841925
 C        -8.3968105898        1.7883394379        6.3410502507
 O        -9.5144002264        1.3333706229        6.3784153317
 C        -7.1587323318        0.8945148611        6.6346815770
 C        -6.6839682596        0.4555825753        5.1682882052
 O        -5.8498002746        1.1618503513        4.5946040152
 C        -7.4671657548       -0.6554513265        4.2749341852
 C        -6.9132104624       -0.7927983864        2.8763661296
 C        -7.2562410132        0.2748952915        1.8621649449
 O        -8.3815150782        0.8177604593        1.9419077760
 C        -6.4838280703        0.8440591489        0.5451379640
 C        -6.0752394261        2.3302214472        0.9496028759
 O        -6.8262702876        3.2673121046        0.8230416461
 C        -4.5741801817        2.5786965466        1.1922161162
 C        -5.3248474985       -0.1329688556        0.1206752889
 C        -7.4925444130        1.0524362578       -0.6420615895
 C        -5.9191107935        1.6307852930        7.2855557832
 C        -7.7473824013       -0.2321266036        7.5293495292
 C        -8.9489287411        6.7126224902        3.3757110177
 C       -11.0302190977        6.7218316723        4.8974533047
 C       -14.1538630718        2.6184039896       -0.4987965278
 C       -12.5405108250        0.8256119167        0.1651860400
 C        -7.9605023804        4.9202714497       -2.7861359506
 C        -8.9469338761        7.2626764433       -2.5907352005
 C       -13.4485690069        7.5185759266       -8.2228688952
 C       -14.3892821507        5.2881597744       -7.1566370701
 H       -11.4436605058        5.3198843931      -10.7822757776
 H       -11.2268656143        6.8233462717       -9.8420772405
 H       -12.7276885248        6.5761066138      -10.7863685172
 H       -10.4992098604        6.9325613320       -7.5409395138
 H       -10.5713623634        5.2584095368       -6.6833471495
 H       -10.9520465128        6.9504036168       -4.6024192963
 H        -9.5986462542        7.8998469160       -5.5495297868
 H        -9.6922666765        3.0642800636       -2.6058254995
 H       -10.6534917132        3.4699736984       -4.1056811583
 H       -12.0392395115        2.0355732205       -2.8349928903
 H       -12.6619238323        3.7029373325       -2.6036060254
 H       -14.2096687012        4.1000930065        2.2010465611
 H       -13.0510785643        5.0208101268        1.0353413142
 H       -12.4635113421        4.2479797487        3.9917412174
 H       -13.0945963388        5.7919364408        3.3110485619
 H       -10.0682750275        4.1355157877        6.6661147069
 H        -8.9724150021        5.3324972496        6.5192021432
 H        -7.5128359038        3.6671105707        7.0856764772
 H        -7.3456727750        3.4464634451        5.4385776620
 H        -8.5055542091       -0.4249380714        4.2446335315
 H        -7.4670292141       -1.6190004887        4.7788907719
 H        -7.2701313040       -1.8015410483        2.4564837822
 H        -5.8153729263       -1.0294904610        2.8516907215
 H        -4.1259275986        2.5392682447        0.1876157613
 H        -4.1043752763        1.7430412255        1.7650453884
 H        -4.3602319930        3.6027916337        1.5391263134
 H        -5.6081275394       -0.8555668561       -0.5802611237
 H        -4.9128461167       -0.6034384293        0.9918934270
 H        -4.4592726807        0.3853503011       -0.3912740741
 H        -7.8894074841        0.1823165061       -1.1127684664
 H        -7.1481966685        1.7091351929       -1.3890474221
 H        -8.4099607716        1.5031114730       -0.2568027501
 H        -5.2280699105        2.0857726224        6.6484997843
 H        -5.4459365401        0.8200183079        7.8816620885
 H        -6.3241880157        2.4111223483        7.9478511588
 H        -8.3341201226        0.2646683266        8.3449391449
 H        -6.9079236875       -0.8010212364        8.0268107326
 H        -8.4423631929       -0.8754202805        6.9311824544
 H        -9.1797828410        7.6836053485        2.8530413414
 H        -8.6970594547        6.1277946782        2.4862381152
 H        -8.2097860230        6.9438522733        4.1015263248
 H       -10.4664689372        7.0896443385        5.8249369069
 H       -11.9928014070        6.2683183759        5.1712658747
 H       -11.3343489389        7.7246350266        4.5638367184
 H       -14.8524576905        2.0771813556        0.0726961414
 H       -14.1706687443        2.2640293771       -1.5315710942
 H       -14.2898379628        3.7256812190       -0.6259525323
 H       -13.1919057519        0.3554950354       -0.5719870403
 H       -12.7640724285        0.4305086527        1.1233249859
 H       -11.5385685235        0.4741090387        0.0359785700
 H        -7.0056542426        5.4746577135       -2.8539742176
 H        -7.9657162119        4.0195417553       -3.3825940247
 H        -8.0456176750        4.6360571789       -1.7199862578
 H        -7.9374326130        7.4992652209       -2.2294841417
 H        -9.4863019718        7.3988694834       -1.6586365102
 H        -9.0863502847        8.0782824041       -3.3196353302
 H       -12.6198510572        8.1185893824       -8.5319419157
 H       -13.8102716832        8.1648008740       -7.3474839580
 H       -14.1778113154        7.5818806103       -8.9609132906
 H       -14.9557680132        4.9067185458       -7.9821661721
 H       -14.9641801140        5.9254438519       -6.4797809548
 H       -13.8985835822        4.4287592619       -6.6250177330
 Na       -9.1518149519        2.9975427445        1.5330904840
