117

 C        -8.9473622489        5.7877466361       -8.5568807543
 C        -9.8211784166        4.5658751800       -8.5363256647
 O       -10.9988479879        4.5545206412       -8.9785619634
 C        -9.2875867776        3.3529378851       -7.7056729285
 C        -9.7683830093        3.5163176629       -6.1799461852
 O        -9.1777252127        4.3377827991       -5.5018885576
 C       -10.8655992216        2.6453604903       -5.6076714823
 C       -11.3197667773        3.1069426650       -4.1918913583
 C       -12.0769758835        2.0349617963       -3.4525889031
 O       -11.9365434636        0.8833175404       -3.8601527364
 C       -13.1474007753        2.3239109882       -2.2377649395
 C       -12.3374813978        2.9869538220       -1.0097116757
 O       -11.5116055452        2.3519165073       -0.4386483334
 C       -12.5222170443        4.5175826251       -0.7566561476
 C       -13.4417782111        4.9245218983        0.5073173011
 C       -12.9046930585        6.0818725764        1.3406960668
 O       -11.8935662290        6.6589178676        1.0536319939
 C       -13.7093262141        6.3461788327        2.6769708987
 C       -13.1675734056        5.4844411693        3.8914967210
 O       -13.8650337555        4.6367917765        4.3768120227
 C       -11.6943835494        5.7814526347        4.4397118723
 C       -10.8849061195        4.5999941462        4.8937467290
 C       -10.6849423229        3.6467943375        3.7749415673
 O       -10.5357079418        4.0875519938        2.6531684812
 C       -10.4636681763        2.1172831740        4.1205395383
 C        -8.9315540275        1.8602963869        3.7489722299
 O        -8.5292548077        1.8960318788        2.6168530976
 C        -8.0078169185        1.7384355786        4.9689843271
 C        -6.4931506547        1.7239974824        4.4873288977
 C        -6.1849918031        3.2071052271        4.1190827066
 O        -6.9509338882        4.0820192122        4.4918480710
 C        -4.8075359969        3.5938277950        3.4197596471
 C        -5.2239226158        4.1616101460        1.9754880992
 O        -5.0637270932        3.5046338719        0.9807499590
 C        -5.8269979458        5.6128947959        1.8927940474
 C        -6.0061747201        5.9790498469        0.4242610061
 C        -6.9806164101        4.9529898788       -0.0822816629
 O        -8.0136357757        4.7746214062        0.5439625918
 C        -6.7375109721        4.1922344045       -1.5055677432
 C        -7.2970356244        2.7715723203       -1.2828976410
 O        -8.4881891727        2.6315776168       -1.1893499575
 C        -6.3603875168        1.5425067774       -1.1108333052
 C        -7.6625754808        4.9699490984       -2.5238442838
 C        -5.3092244252        4.2221554373       -2.0780672493
 C        -4.1551268064        4.6807806371        4.2737795550
 C        -3.8869086120        2.4254913233        3.2386799214
 C       -10.9007715809        1.8031185791        5.5577871761
 C       -11.2277274516        1.1691097587        3.1545354717
 C       -13.4342823979        7.9053427263        2.9042011226
 C       -15.2810139286        6.1765302086        2.5324240629
 C       -14.3413591167        3.2085023575       -2.6614270202
 C       -13.6393375250        0.9314174031       -1.7696750791
 C        -9.8832856490        2.0971557583       -8.2598731638
 C        -7.8036974229        3.1751725638       -7.5255514647
 H        -8.9426365896        6.1432408681       -7.5255480054
 H        -9.4124211936        6.5340375764       -9.1801662213
 H        -7.9343723723        5.5752024298       -8.8784495379
 H       -10.3547930628        1.6484438262       -5.4918956037
 H       -11.6957643935        2.5065170574       -6.3539424180
 H       -12.0627836243        3.9890876888       -4.2749904200
 H       -10.4363220200        3.4821858311       -3.6456928034
 H       -12.7824347158        5.0585643261       -1.6799357733
 H       -11.5308983297        4.8104562319       -0.3608063796
 H       -13.3323063545        4.1159678631        1.2514161792
 H       -14.4994151712        5.0105209949        0.3488172086
 H       -11.8570927326        6.4491121338        5.2869267555
 H       -11.1003651175        6.3699273538        3.7087418840
 H       -11.3636342990        4.0894110334        5.7239268571
 H        -9.9270483095        4.9920442638        5.1582427392
 H        -8.1718391933        0.8246569288        5.5474298695
 H        -8.2629774351        2.5566627488        5.6870260955
 H        -6.3900886592        1.0958453970        3.5936075435
 H        -5.8515583279        1.3433101069        5.3357098624
 H        -5.1294776098        6.3618127210        2.4236424611
 H        -6.7775556201        5.6110963142        2.4722077505
 H        -5.0352487973        5.9396441768       -0.0607971641
 H        -6.3458316123        7.0464261465        0.3371435787
 H        -5.8549532828        1.7971312815       -0.1856767577
 H        -5.6518836591        1.2237503839       -1.8867098888
 H        -7.0091567536        0.7489331723       -0.8981773037
 H        -8.6657241241        4.9761846842       -2.1941255854
 H        -7.6569627861        4.5414884547       -3.5085500917
 H        -7.3016570180        5.9637143653       -2.5702138585
 H        -5.2953021752        3.5334956875       -2.9140650121
 H        -4.5766545228        4.0418018232       -1.3015663111
 H        -5.1493045219        5.2408316844       -2.3211550897
 H        -4.7567230298        5.5740913911        4.2811757797
 H        -3.1785890117        5.0427740947        3.9657702806
 H        -3.9772410529        4.3048300902        5.2410757529
 H        -3.0554207643        2.7507846564        2.5797866587
 H        -4.4596278961        1.6620772930        2.6523139260
 H        -3.4780240627        2.0635070498        4.1421046662
 H       -10.3528890574        2.4276556212        6.3284359663
 H       -10.7043629370        0.7304785332        5.7498115298
 H       -11.9301009429        1.9380830330        5.6215715200
 H       -12.2878879599        1.0704703741        3.4360197847
 H       -10.7928221704        0.1861146734        3.0852896861
 H       -11.2584133117        1.6305137378        2.1728773337
 H       -13.9174514188        8.2691265976        3.8876291656
 H       -13.8596443881        8.4333222940        2.0659721165
 H       -12.3827014499        8.1447191369        2.8957045595
 H       -15.8946830816        6.5293397108        3.4112368766
 H       -15.4206955977        5.0939327820        2.5193688346
 H       -15.5755405664        6.6606898362        1.6042305606
 H       -14.7871283916        2.7505595048       -3.5384893803
 H       -14.1153847379        4.2858208902       -2.9180212061
 H       -15.1307790267        3.2121697311       -1.9466026861
 H       -12.7024572606        0.4501787689       -1.5680055563
 H       -14.1639591611        0.4501887005       -2.5632625803
 H       -14.2871773443        1.0907199197       -0.8899299268
 H       -10.9712549449        2.1421691007       -8.1249680465
 H        -9.4103635150        1.2359055387       -7.7621462205
 H        -9.6026363233        2.0800701335       -9.2961758813
 H        -7.6706305939        2.3323424473       -6.8428113866
 H        -7.3056556021        4.0167493856       -7.0959006474
 H        -7.1812092736        3.0499176939       -8.3998333235
 Na       -9.6655609729        3.1928364257        0.7643921659
