117

 C        -8.8414871048        5.6822426417       -8.7080153577
 C        -9.8299015044        4.4747302862       -8.4067232010
 O       -10.9826535926        4.3811418799       -8.8346547824
 C        -9.2467301987        3.2694694584       -7.5390620495
 C        -9.8024253354        3.5823369247       -6.0486538712
 O        -9.5397284382        4.6351795236       -5.5126767427
 C       -10.8007391138        2.5908206527       -5.3572158634
 C       -10.9426354903        2.8697185931       -3.8733614662
 C       -11.8959289116        1.8236623052       -3.1853929485
 O       -11.8632066556        0.6346649223       -3.4339976728
 C       -12.9679434800        2.3395392322       -2.0163819629
 C       -12.0783914897        2.9943979795       -0.9839936418
 O       -11.3755235214        2.2161942552       -0.3417869720
 C       -12.2321700202        4.5017222223       -0.5504648525
 C       -13.0040152758        4.5862380008        0.7969240739
 C       -13.0050573416        6.0414250281        1.2515404296
 O       -12.1048512092        6.7528316785        0.9306476190
 C       -13.7447121765        6.5492825975        2.5064500284
 C       -13.0297124635        5.6876243944        3.6280548103
 O       -13.3828941271        4.5581809404        3.8707884708
 C       -11.7183094731        6.2102342635        4.3474641434
 C       -11.0392176120        4.9601710325        4.9858522030
 C       -10.6850711718        3.9959468961        3.7805395658
 O       -10.7081989070        4.3887673684        2.6643469776
 C       -10.5197321495        2.3379786628        4.0808253238
 C        -9.1074535357        1.9430576363        3.5939795547
 O        -8.6907452850        2.0477532030        2.4378128100
 C        -8.0536474040        1.4462351343        4.6286637126
 C        -6.6107021369        1.7089324496        4.2274644547
 C        -6.2005912907        3.2403118153        4.1376157627
 O        -6.9333368218        4.0945437041        4.6209539028
 C        -4.7835762769        3.5376664640        3.4157591471
 C        -5.2286357047        4.0356281167        2.0357022742
 O        -5.4193353687        3.2660125747        1.1210221100
 C        -5.7099849129        5.5108410775        1.8120010734
 C        -6.0784346609        5.9321739384        0.3884503338
 C        -7.1185887471        5.0402977726       -0.2267812679
 O        -8.2027127862        5.0138983997        0.2673677303
 C        -6.8129134150        4.1240626616       -1.5715389439
 C        -7.4601821973        2.6832069224       -1.3606974910
 O        -8.6604618239        2.5542186480       -1.5121641238
 C        -6.6009853890        1.4162319034       -1.0443768516
 C        -7.6110251220        4.8648686713       -2.7291627721
 C        -5.2717773540        4.1109902532       -1.8563676820
 C        -3.9143370458        4.3995013021        4.3091965990
 C        -3.9615938973        2.2565514334        3.0473776497
 C       -10.8040780703        2.0013097505        5.5349905110
 C       -11.6482906475        1.6888147388        3.1854702956
 C       -13.4875698717        8.0895532605        2.8035609670
 C       -15.2786406147        6.2143559818        2.4179289163
 C       -14.0581640488        3.1082346045       -2.7211102549
 C       -13.7777962726        1.1125940688       -1.3379384045
 C        -9.8992272981        1.9443105031       -7.9975519270
 C        -7.6934550574        3.1634416555       -7.5534221238
 H        -8.1098371553        5.7430563598       -7.9147974889
 H        -9.4030111859        6.5913532781       -8.8992791912
 H        -8.2747929450        5.4571541259       -9.6572131240
 H       -10.3236041805        1.6442799059       -5.3862870410
 H       -11.7931418067        2.5565628976       -5.8687460141
 H       -11.2966890003        3.8504359327       -3.7335329581
 H       -10.0128717597        2.7866619368       -3.3503401284
 H       -12.7794829626        5.2030719098       -1.2229605571
 H       -11.2001640070        4.7711604227       -0.3940641633
 H       -12.4533587057        4.0049997199        1.5209203110
 H       -14.0472499199        4.2124824340        0.8013211196
 H       -12.0638066980        6.9073185341        5.1307733735
 H       -11.0903185660        6.7023121662        3.6031619648
 H       -11.7472526468        4.5092205353        5.6880149037
 H       -10.0396207750        5.1980706714        5.4530056153
 H        -8.2149072865        0.3741682604        4.6870755135
 H        -8.2174458332        1.7773777767        5.6286339800
 H        -6.4424234545        1.2500654104        3.2213252243
 H        -5.9831329315        1.3199103350        5.0475474332
 H        -5.0247466320        6.1445004665        2.2763174594
 H        -6.6106814878        5.6044973990        2.4376459310
 H        -5.1943640786        5.9341471340       -0.1999585882
 H        -6.4290819016        6.9850424290        0.4464611497
 H        -6.0977824813        1.4895606799       -0.0374507095
 H        -5.8486217670        1.3034666307       -1.8499095110
 H        -7.2623446371        0.5449687955       -1.0423931083
 H        -8.6925395681        4.8516502276       -2.5408856803
 H        -7.5504397501        4.3303223966       -3.7375082075
 H        -7.1844017139        5.8874830685       -2.8772471903
 H        -5.2025069900        3.5274655723       -2.8138914388
 H        -4.6729328328        3.7586564385       -1.0371847831
 H        -4.9291157462        5.1307846872       -1.9087995273
 H        -4.4538630942        4.7572138907        5.1665045248
 H        -3.6445973950        5.3748484704        3.8198436936
 H        -2.9840362916        3.8724380295        4.6248771177
 H        -2.9633796935        2.4875551324        2.7090205445
 H        -4.5101721477        1.7433145679        2.2349636342
 H        -3.8559701200        1.7076036093        3.9678272049
 H       -10.2673388509        2.6709808198        6.2466276303
 H       -10.6915328742        0.9816720371        5.7492431022
 H       -11.8611400762        2.2062971259        5.5811865904
 H       -12.6257355402        2.2092949057        3.2667098235
 H       -11.7299547304        0.6371389958        3.4689230548
 H       -11.4120592065        1.7192429641        2.1431104131
 H       -13.9334257958        8.3210026748        3.7799185584
 H       -14.0225848081        8.7348128412        2.1342456725
 H       -12.4523808020        8.3143070240        2.6675411355
 H       -15.7911999124        6.5262997105        3.3399381843
 H       -15.4756916798        5.1778242766        2.4015061157
 H       -15.6330312888        6.8244075035        1.6059630994
 H       -14.7382059360        2.4405705949       -3.1880024888
 H       -13.6607147764        3.8006316374       -3.5015780078
 H       -14.6377525049        3.7261753136       -2.0500468547
 H       -13.0444126084        0.5963305447       -0.7277922136
 H       -14.0899956380        0.5727460986       -2.2036399909
 H       -14.6556992566        1.4787286232       -0.7786728366
 H       -10.9186870732        2.2702896177       -8.1906585581
 H        -9.8854786655        1.2919630012       -7.1751796227
 H        -9.3833235723        1.4680426030       -8.8461403719
 H        -7.3796631449        2.1727618561       -7.2139790261
 H        -7.1640893605        3.8931161393       -6.9842282852
 H        -7.2151640742        3.3502211184       -8.5634068970
 Na       -9.5696927863        3.0832640310        0.7834482262
