117

 C        -8.9637573342        5.6099922678       -8.7354979420
 C        -9.7709842418        4.3917759909       -8.3653737377
 O       -10.9591076285        4.4011712709       -8.7845832156
 C        -9.3387510447        3.2577224141       -7.4119607212
 C        -9.8256374776        3.5848580042       -5.9835324645
 O        -9.5577713067        4.6663888637       -5.4717394477
 C       -10.7095891853        2.5462550907       -5.3017104606
 C       -10.8688785652        2.7166734031       -3.7731908489
 C       -11.8901085364        1.7508170698       -3.1379749619
 O       -11.7836009507        0.5807769658       -3.3786606441
 C       -12.9678465620        2.3139777611       -2.0778749181
 C       -12.1498935077        2.9801098933       -0.8408645786
 O       -11.3617873408        2.2698093433       -0.2949777177
 C       -12.1722650247        4.4158782230       -0.5604731041
 C       -12.9454303918        4.6700687663        0.7554862375
 C       -12.7600967527        6.1284957347        1.2471436921
 O       -12.0744412713        6.9743341035        0.7214775236
 C       -13.6963614320        6.5789025100        2.6257523990
 C       -13.0790289026        5.6408115211        3.6408963899
 O       -13.3343721126        4.4413732065        3.7257932434
 C       -11.8385467901        6.1925069361        4.3811152750
 C       -10.9673161186        5.0627712540        4.9041140130
 C       -10.6649039151        4.0352790519        3.8260092559
 O       -10.5284808129        4.3865339688        2.6436432487
 C       -10.5485488039        2.4837498348        4.0903012001
 C        -9.1140300330        2.0146676349        3.5666487633
 O        -8.8000038871        2.0967492333        2.4115796886
 C        -8.1008847258        1.4866662967        4.5618093900
 C        -6.6422115253        1.6522595817        4.1647386570
 C        -6.1783970922        3.1380425693        4.1072292179
 O        -6.7750451024        4.0707422356        4.5792673712
 C        -4.8568811116        3.4185723973        3.4130470563
 C        -5.3661774529        3.9777608053        2.0226238333
 O        -5.5144394556        3.1813421828        1.1168340321
 C        -5.7648442884        5.5545193621        1.7891941901
 C        -6.0678443836        5.8868851471        0.3524254390
 C        -7.1560483263        4.9467127252       -0.2443832874
 O        -8.2776175295        4.9857682927        0.2946897637
 C        -6.8265925965        4.1091761074       -1.4675268243
 C        -7.4630322959        2.7173429848       -1.3525435185
 O        -8.6538888586        2.6507189540       -1.5722382082
 C        -6.6848496608        1.4214311699       -1.1552057070
 C        -7.5263974959        4.7411980066       -2.6643911772
 C        -5.3231912342        4.0983839854       -1.8844548389
 C        -4.0039403814        4.3925206698        4.3184948465
 C        -3.9236365670        2.1596142970        3.1117829326
 C       -10.7962805827        2.1053577679        5.5312163323
 C       -11.6666870919        1.7451014594        3.2455340462
 C       -13.6357419695        8.0782070771        2.5481327297
 C       -15.2496204639        6.2499776292        2.5017633376
 C       -13.9691845445        3.2616865710       -2.7088337232
 C       -13.7245279749        1.0674480195       -1.3315142972
 C        -9.8980777222        1.8864607062       -7.9868119592
 C        -7.7567835689        3.0974569966       -7.3905565261
 H        -8.2265081874        5.7614990551       -7.9225679145
 H        -9.6925263657        6.4181056266       -8.8837116365
 H        -8.4208874515        5.4951142016       -9.6717458681
 H       -10.2830787473        1.5187890682       -5.4843700311
 H       -11.6970313295        2.6670539846       -5.8272835241
 H       -11.2355110949        3.7594381249       -3.5937779320
 H        -9.9538260034        2.5801107449       -3.2590690291
 H       -12.7073203887        4.9560016531       -1.3337906558
 H       -11.1035948592        4.6844066515       -0.5070278089
 H       -12.6208450738        3.9249076431        1.4911459508
 H       -14.0074428609        4.6252677349        0.6882507323
 H       -12.2209090359        6.7283928478        5.2387938855
 H       -11.2983295003        6.8600670521        3.6796772850
 H       -11.5168837158        4.6015254020        5.7514173010
 H        -9.9932037255        5.4354610702        5.1995184119
 H        -8.3980573327        0.4735878780        4.7544901770
 H        -8.2913715397        1.9891059502        5.5219915877
 H        -6.6130928536        1.3669749917        3.0976438678
 H        -5.8946050497        1.1150109097        4.8680580900
 H        -4.9472290678        6.1739179801        2.3200964968
 H        -6.6428596120        5.7388492191        2.3897985111
 H        -5.1398911839        5.9315449641       -0.2268026925
 H        -6.4902807917        6.9168171891        0.3464565117
 H        -6.1672494273        1.5952459956       -0.2046847934
 H        -5.9549333124        1.1415373883       -1.9764714555
 H        -7.3956378959        0.6340418949       -0.9565977482
 H        -8.6420609664        4.6672469161       -2.5851361851
 H        -7.3173491922        4.1670891013       -3.5855742976
 H        -7.1453803097        5.7802346436       -2.8340427446
 H        -5.3187952594        3.3825895627       -2.6990632277
 H        -4.6099887422        3.9197970436       -1.0321876909
 H        -5.0321351790        5.1043368785       -2.2150397755
 H        -4.6418161576        4.8488821600        5.1314634316
 H        -3.6974280744        5.2728244889        3.7403027959
 H        -3.1735231149        3.9309385196        4.7432671300
 H        -3.0434044357        2.5356655826        2.5024520581
 H        -4.4423697956        1.3881769818        2.4772010900
 H        -3.5204297772        1.8460312685        4.0521208382
 H       -10.1558815680        2.6948018302        6.2230531883
 H       -10.5793727254        0.9953852772        5.5913185794
 H       -11.7896071617        2.2280051093        5.7566240113
 H       -12.5956790899        2.3097899295        3.2157914464
 H       -11.8065601359        0.7759853913        3.6790654587
 H       -11.3886903120        1.5929155233        2.1839083614
 H       -14.0015092507        8.4628359968        3.5026691757
 H       -14.3771236907        8.4201469254        1.8749137966
 H       -12.7047432115        8.4336121435        2.1993040125
 H       -15.7512146795        6.7645390877        3.3694515903
 H       -15.5032372959        5.1991164478        2.7027308002
 H       -15.6067165546        6.7516553638        1.6108258700
 H       -14.6654757462        2.8060880511       -3.4190156554
 H       -13.4809354627        4.1332815656       -3.2079635953
 H       -14.5682992894        3.6737602390       -1.9279117193
 H       -12.9553769182        0.6597889427       -0.6989015717
 H       -14.2206791800        0.4056996208       -2.0311913247
 H       -14.4783407349        1.5775035242       -0.6977238690
 H       -10.9776228703        1.9100788724       -7.9318789776
 H        -9.4542365053        1.0697832934       -7.3811845466
 H        -9.5350696580        1.8355977375       -8.9734658458
 H        -7.4584811465        2.0903652984       -6.9567879496
 H        -7.2094996777        3.8859490563       -6.7938452470
 H        -7.2546664732        3.1816369550       -8.3454043966
 Na       -9.5507460128        3.2277564391        0.7400167853
